================================================================================
GEOPACKAGE DUPLICATE REMOVAL REPORT
================================================================================

Column analyzed: Num_parcel
Keep strategy: First occurrence
Output folder: C:\Users\USER\Documents\Raw_Data\Levés topo-enquetes\Données brutes en polygone\POLYGONES\NETTOYE
Date: 2025-08-19 09:43:43

SUMMARY
----------------------------------------
Total files processed: 15
Successfully processed: 15
Files with errors: 0
Files with duplicates: 15
Total original records: 43,110
Total cleaned records: 38,830
Total removed records: 4,280

Duplicate removal rate: 9.93%

DETAILED RESULTS
================================================================================

Input file: BALA_SANS_DOUBLON.gpkg
Output file: BALA_SANS_DOUBLON_no_duplicates.gpkg
----------------------------------------
STATUS: SUCCESS
Original records: 911
Cleaned records: 878
Removed records: 33
Removal rate: 3.62%

Duplicate values that were found and cleaned:
  • Value: '0532010101662' (appeared 22 times, kept first)
    Original indices: [674, 675, 676, 677, 678, 679, 680, 681, 682, 683, 684, 685, 686, 687, 688, 689, 690, 691, 692, 693, 694, 695]
  • Value: '0532010101811' (appeared 2 times, kept first)
    Original indices: [54, 55]
  • Value: '0532010100647' (appeared 2 times, kept first)
    Original indices: [212, 213]
  • Value: '0532010100249' (appeared 2 times, kept first)
    Original indices: [219, 256]
  • Value: '0532010100862' (appeared 2 times, kept first)
    Original indices: [496, 497]
  • Value: '0532010100712' (appeared 2 times, kept first)
    Original indices: [654, 655]
  • Value: '0532010101670' (appeared 2 times, kept first)
    Original indices: [657, 882]
  • Value: '0532010100419' (appeared 2 times, kept first)
    Original indices: [662, 673]
  • Value: '0532010101269' (appeared 2 times, kept first)
    Original indices: [720, 721]
  • Value: '0532010101966' (appeared 2 times, kept first)
    Original indices: [770, 771]
  • Value: '0532010100782' (appeared 2 times, kept first)
    Original indices: [772, 773]
  • Value: '0532010101974' (appeared 2 times, kept first)
    Original indices: [785, 786]
  • Value: '0532010100460' (appeared 2 times, kept first)
    Original indices: [830, 833]

================================================================================

Input file: BALLOU_SANS_DOUBLON.gpkg
Output file: BALLOU_SANS_DOUBLON_no_duplicates.gpkg
----------------------------------------
STATUS: SUCCESS
Original records: 1,417
Cleaned records: 1,397
Removed records: 20
Removal rate: 1.41%

Duplicate values that were found and cleaned:
  • Value: '0512030103549' (appeared 2 times, kept first)
    Original indices: [1399, 1400]
  • Value: '0512030102877' (appeared 2 times, kept first)
    Original indices: [642, 652]
  • Value: '0512030103757' (appeared 2 times, kept first)
    Original indices: [774, 802]
  • Value: '0512030103749' (appeared 2 times, kept first)
    Original indices: [775, 803]
  • Value: '0512030101695' (appeared 2 times, kept first)
    Original indices: [776, 804]
  • Value: '0512030100877' (appeared 2 times, kept first)
    Original indices: [777, 805]
  • Value: '0512030101175' (appeared 2 times, kept first)
    Original indices: [778, 806]
  • Value: '0512030103253' (appeared 2 times, kept first)
    Original indices: [779, 807]
  • Value: '0512030101150' (appeared 2 times, kept first)
    Original indices: [780, 808]
  • Value: '0512030103242' (appeared 2 times, kept first)
    Original indices: [781, 809]
  • Value: '0512030103250' (appeared 2 times, kept first)
    Original indices: [782, 810]
  • Value: '0512030103281' (appeared 2 times, kept first)
    Original indices: [783, 811]
  • Value: '0512030103258' (appeared 2 times, kept first)
    Original indices: [784, 812]
  • Value: '0512030103000' (appeared 2 times, kept first)
    Original indices: [785, 813]
  • Value: '0512030100829' (appeared 2 times, kept first)
    Original indices: [786, 814]
  • Value: '0512030102213' (appeared 2 times, kept first)
    Original indices: [787, 815]
  • Value: '0512030101727' (appeared 2 times, kept first)
    Original indices: [788, 816]
  • Value: '0512030103612' (appeared 2 times, kept first)
    Original indices: [817, 818]
  • Value: '0512030103231' (appeared 2 times, kept first)
    Original indices: [1217, 1219]
  • Value: '0512030103212' (appeared 2 times, kept first)
    Original indices: [1227, 1228]

================================================================================

Input file: BANDAFASSI_SANS_DOUBLON.gpkg
Output file: BANDAFASSI_SANS_DOUBLON_no_duplicates.gpkg
----------------------------------------
STATUS: SUCCESS
Original records: 3,900
Cleaned records: 3,531
Removed records: 369
Removal rate: 9.46%

Duplicate values that were found and cleaned:
  • Value: '1312010101745' (appeared 11 times, kept first)
    Original indices: [1416, 1417, 1420, 1421, 1427, 1444, 1445, 1461, 1462, 1473, 1474]
  • Value: '1312010102968' (appeared 7 times, kept first)
    Original indices: [2154, 2274, 2275, 2412, 2429, 2430, 2509]
  • Value: '1312010101657' (appeared 6 times, kept first)
    Original indices: [743, 795, 796, 799, 800, 801]
  • Value: '1312010100436' (appeared 6 times, kept first)
    Original indices: [2919, 2960, 2961, 3010, 3017, 3018]
  • Value: '1312010100627' (appeared 4 times, kept first)
    Original indices: [1498, 1499, 1514, 1515]
  • Value: '1312010102208' (appeared 4 times, kept first)
    Original indices: [1641, 1642, 1696, 1697]
  • Value: '1312010102421' (appeared 3 times, kept first)
    Original indices: [1168, 1201, 1247]
  • Value: '1312010102832' (appeared 3 times, kept first)
    Original indices: [59, 75, 196]
  • Value: '1312010102648' (appeared 3 times, kept first)
    Original indices: [1977, 2001, 2050]
  • Value: '1312010100188' (appeared 3 times, kept first)
    Original indices: [1980, 2003, 2053]
  • Value: '1312010101040' (appeared 3 times, kept first)
    Original indices: [1916, 1917, 1936]
  • Value: '1312010101953' (appeared 3 times, kept first)
    Original indices: [771, 772, 777]
  • Value: '1312010102176' (appeared 3 times, kept first)
    Original indices: [30, 135, 227]
  • Value: '1312010100581' (appeared 3 times, kept first)
    Original indices: [85, 149, 241]
  • Value: '1312010100259' (appeared 3 times, kept first)
    Original indices: [73, 150, 242]
  • Value: '1312010101747' (appeared 3 times, kept first)
    Original indices: [1906, 1908, 1938]
  • Value: '1312010102502' (appeared 3 times, kept first)
    Original indices: [1971, 1996, 2002]
  • Value: '1312010104041' (appeared 3 times, kept first)
    Original indices: [1188, 1197, 1243]
  • Value: '1312010104033' (appeared 3 times, kept first)
    Original indices: [1189, 1198, 1254]
  • Value: '1312010102647' (appeared 3 times, kept first)
    Original indices: [1635, 1636, 1695]
  • Value: '1312010102489' (appeared 3 times, kept first)
    Original indices: [2111, 2123, 2693]
  • Value: '1312010101980' (appeared 3 times, kept first)
    Original indices: [2205, 2223, 2470]
  • Value: '1312010101563' (appeared 3 times, kept first)
    Original indices: [2206, 2224, 2471]
  • Value: '1312010101270' (appeared 3 times, kept first)
    Original indices: [2648, 2649, 2650]
  • Value: '1312010100574' (appeared 3 times, kept first)
    Original indices: [2918, 2934, 3015]
  • Value: '1312010104554' (appeared 3 times, kept first)
    Original indices: [3073, 3074, 3077]
  • Value: '1312010100960' (appeared 3 times, kept first)
    Original indices: [3270, 3277, 3284]
  • Value: '1312010104583' (appeared 3 times, kept first)
    Original indices: [3446, 3877, 3878]
  • Value: '1312010102931' (appeared 3 times, kept first)
    Original indices: [3457, 3466, 3513]
  • Value: '1312010100568' (appeared 3 times, kept first)
    Original indices: [3682, 3683, 3684]
  • Value: '1312010104591' (appeared 2 times, kept first)
    Original indices: [368, 1592]
  • Value: '1312010100755' (appeared 2 times, kept first)
    Original indices: [572, 610]
  • Value: '1312010100085' (appeared 2 times, kept first)
    Original indices: [573, 611]
  • Value: '1312010100070' (appeared 2 times, kept first)
    Original indices: [574, 612]
  • Value: '1312010100758' (appeared 2 times, kept first)
    Original indices: [1877, 2634]
  • Value: '1312010101937' (appeared 2 times, kept first)
    Original indices: [773, 776]
  • Value: '1312010102079' (appeared 2 times, kept first)
    Original indices: [774, 775]
  • Value: '1312010101476' (appeared 2 times, kept first)
    Original indices: [944, 2601]
  • Value: '1312010100967' (appeared 2 times, kept first)
    Original indices: [1504, 1506]
  • Value: '1312010102525' (appeared 2 times, kept first)
    Original indices: [1965, 1990]
  • Value: '1312010104372' (appeared 2 times, kept first)
    Original indices: [1167, 1291]
  • Value: '1312010102170' (appeared 2 times, kept first)
    Original indices: [783, 797]
  • Value: '1312010102344' (appeared 2 times, kept first)
    Original indices: [1966, 1991]
  • Value: '1312010102672' (appeared 2 times, kept first)
    Original indices: [1967, 1992]
  • Value: '1312010102262' (appeared 2 times, kept first)
    Original indices: [1968, 1993]
  • Value: '1312010101117' (appeared 2 times, kept first)
    Original indices: [1834, 1933]
  • Value: '1312010100813' (appeared 2 times, kept first)
    Original indices: [1835, 1931]
  • Value: '1312010101013' (appeared 2 times, kept first)
    Original indices: [1836, 1932]
  • Value: '1312010100805' (appeared 2 times, kept first)
    Original indices: [1837, 1946]
  • Value: '1312010102494' (appeared 2 times, kept first)
    Original indices: [1969, 1994]
  • Value: '1312010102416' (appeared 2 times, kept first)
    Original indices: [1970, 1995]
  • Value: '1312010102447' (appeared 2 times, kept first)
    Original indices: [1712, 1724]
  • Value: '1312010102877' (appeared 2 times, kept first)
    Original indices: [1623, 1692]
  • Value: '1312010104543' (appeared 2 times, kept first)
    Original indices: [883, 2133]
  • Value: '1312010104446' (appeared 2 times, kept first)
    Original indices: [884, 2870]
  • Value: '1312010100531' (appeared 2 times, kept first)
    Original indices: [599, 614]
  • Value: '1312010102174' (appeared 2 times, kept first)
    Original indices: [698, 704]
  • Value: '1312010101458' (appeared 2 times, kept first)
    Original indices: [699, 707]
  • Value: '1312010101537' (appeared 2 times, kept first)
    Original indices: [700, 770]
  • Value: '1312010101247' (appeared 2 times, kept first)
    Original indices: [400, 435]
  • Value: '1312010101442' (appeared 2 times, kept first)
    Original indices: [701, 718]
  • Value: '1312010101655' (appeared 2 times, kept first)
    Original indices: [702, 753]
  • Value: '1312010100314' (appeared 2 times, kept first)
    Original indices: [60, 183]
  • Value: '1312010100306' (appeared 2 times, kept first)
    Original indices: [61, 184]
  • Value: '1312010100041' (appeared 2 times, kept first)
    Original indices: [62, 185]
  • Value: '1312010101589' (appeared 2 times, kept first)
    Original indices: [63, 186]
  • Value: '1312010101493' (appeared 2 times, kept first)
    Original indices: [64, 187]
  • Value: '1312010100322' (appeared 2 times, kept first)
    Original indices: [65, 188]
  • Value: '1312010100025' (appeared 2 times, kept first)
    Original indices: [66, 189]
  • Value: '1312010101981' (appeared 2 times, kept first)
    Original indices: [67, 190]
  • Value: '1312010101477' (appeared 2 times, kept first)
    Original indices: [68, 191]
  • Value: '1312010101846' (appeared 2 times, kept first)
    Original indices: [69, 192]
  • Value: '1312010100252' (appeared 2 times, kept first)
    Original indices: [70, 193]
  • Value: '1312010100275' (appeared 2 times, kept first)
    Original indices: [71, 194]
  • Value: '1312010100237' (appeared 2 times, kept first)
    Original indices: [1713, 1731]
  • Value: '1312010100385' (appeared 2 times, kept first)
    Original indices: [74, 195]
  • Value: '1312010101501' (appeared 2 times, kept first)
    Original indices: [76, 197]
  • Value: '1312010100573' (appeared 2 times, kept first)
    Original indices: [77, 198]
  • Value: '1312010100557' (appeared 2 times, kept first)
    Original indices: [78, 199]
  • Value: '1312010100549' (appeared 2 times, kept first)
    Original indices: [79, 200]
  • Value: '1312010100565' (appeared 2 times, kept first)
    Original indices: [80, 201]
  • Value: '1312010101992' (appeared 2 times, kept first)
    Original indices: [81, 202]
  • Value: '1312010101055' (appeared 2 times, kept first)
    Original indices: [82, 203]
  • Value: '1312010101902' (appeared 2 times, kept first)
    Original indices: [83, 204]
  • Value: '1312010102016' (appeared 2 times, kept first)
    Original indices: [84, 205]
  • Value: '1312010102008' (appeared 2 times, kept first)
    Original indices: [86, 206]
  • Value: '1312010101845' (appeared 2 times, kept first)
    Original indices: [87, 207]
  • Value: '1312010101982' (appeared 2 times, kept first)
    Original indices: [88, 208]
  • Value: '1312010101376' (appeared 2 times, kept first)
    Original indices: [89, 209]
  • Value: '1312010100597' (appeared 2 times, kept first)
    Original indices: [90, 210]
  • Value: '1312010101344' (appeared 2 times, kept first)
    Original indices: [91, 211]
  • Value: '1312010102006' (appeared 2 times, kept first)
    Original indices: [92, 212]
  • Value: '1312010100589' (appeared 2 times, kept first)
    Original indices: [93, 213]
  • Value: '1312010102014' (appeared 2 times, kept first)
    Original indices: [94, 214]
  • Value: '1312010100295' (appeared 2 times, kept first)
    Original indices: [95, 215]
  • Value: '1312010102455' (appeared 2 times, kept first)
    Original indices: [96, 156]
  • Value: '1312010102367' (appeared 2 times, kept first)
    Original indices: [97, 157]
  • Value: '1312010102087' (appeared 2 times, kept first)
    Original indices: [98, 158]
  • Value: '1312010102184' (appeared 2 times, kept first)
    Original indices: [99, 159]
  • Value: '1312010102216' (appeared 2 times, kept first)
    Original indices: [100, 160]
  • Value: '1312010102168' (appeared 2 times, kept first)
    Original indices: [101, 161]
  • Value: '1312010102056' (appeared 2 times, kept first)
    Original indices: [102, 162]
  • Value: '1312010102719' (appeared 2 times, kept first)
    Original indices: [103, 163]
  • Value: '1312010102688' (appeared 2 times, kept first)
    Original indices: [104, 164]
  • Value: '1312010102680' (appeared 2 times, kept first)
    Original indices: [105, 165]
  • Value: '1312010102864' (appeared 2 times, kept first)
    Original indices: [106, 166]
  • Value: '1312010102887' (appeared 2 times, kept first)
    Original indices: [1576, 2807]
  • Value: '1312010102727' (appeared 2 times, kept first)
    Original indices: [108, 167]
  • Value: '1312010102848' (appeared 2 times, kept first)
    Original indices: [109, 168]
  • Value: '1312010102840' (appeared 2 times, kept first)
    Original indices: [110, 169]
  • Value: '1312010102816' (appeared 2 times, kept first)
    Original indices: [111, 170]
  • Value: '1312010102808' (appeared 2 times, kept first)
    Original indices: [112, 171]
  • Value: '1312010102760' (appeared 2 times, kept first)
    Original indices: [113, 172]
  • Value: '1312010102999' (appeared 2 times, kept first)
    Original indices: [114, 173]
  • Value: '1312010102712' (appeared 2 times, kept first)
    Original indices: [115, 174]
  • Value: '1312010102879' (appeared 2 times, kept first)
    Original indices: [116, 175]
  • Value: '1312010102615' (appeared 2 times, kept first)
    Original indices: [117, 176]
  • Value: '1312010100125' (appeared 2 times, kept first)
    Original indices: [118, 177]
  • Value: '1312010102895' (appeared 2 times, kept first)
    Original indices: [119, 178]
  • Value: '1312010102623' (appeared 2 times, kept first)
    Original indices: [120, 179]
  • Value: '1312010102352' (appeared 2 times, kept first)
    Original indices: [121, 180]
  • Value: '1312010100117' (appeared 2 times, kept first)
    Original indices: [122, 181]
  • Value: '1312010100377' (appeared 2 times, kept first)
    Original indices: [123, 182]
  • Value: '1312010101575' (appeared 2 times, kept first)
    Original indices: [124, 216]
  • Value: '1312010101559' (appeared 2 times, kept first)
    Original indices: [125, 217]
  • Value: '1312010101551' (appeared 2 times, kept first)
    Original indices: [126, 218]
  • Value: '1312010101320' (appeared 2 times, kept first)
    Original indices: [127, 219]
  • Value: '1312010102914' (appeared 2 times, kept first)
    Original indices: [128, 220]
  • Value: '1312010101567' (appeared 2 times, kept first)
    Original indices: [129, 221]
  • Value: '1312010101351' (appeared 2 times, kept first)
    Original indices: [130, 222]
  • Value: '1312010101942' (appeared 2 times, kept first)
    Original indices: [131, 223]
  • Value: '1312010101998' (appeared 2 times, kept first)
    Original indices: [132, 224]
  • Value: '1312010101853' (appeared 2 times, kept first)
    Original indices: [133, 225]
  • Value: '1312010101990' (appeared 2 times, kept first)
    Original indices: [134, 226]
  • Value: '1312010100541' (appeared 2 times, kept first)
    Original indices: [136, 228]
  • Value: '1312010100605' (appeared 2 times, kept first)
    Original indices: [137, 229]
  • Value: '1312010100533' (appeared 2 times, kept first)
    Original indices: [138, 230]
  • Value: '1312010101950' (appeared 2 times, kept first)
    Original indices: [139, 231]
  • Value: '1312010101958' (appeared 2 times, kept first)
    Original indices: [140, 232]
  • Value: '1312010101966' (appeared 2 times, kept first)
    Original indices: [141, 233]
  • Value: '1312010101368' (appeared 2 times, kept first)
    Original indices: [142, 234]
  • Value: '1312010101263' (appeared 2 times, kept first)
    Original indices: [143, 235]
  • Value: '1312010100517' (appeared 2 times, kept first)
    Original indices: [144, 236]
  • Value: '1312010101352' (appeared 2 times, kept first)
    Original indices: [145, 237]
  • Value: '1312010101360' (appeared 2 times, kept first)
    Original indices: [146, 238]
  • Value: '1312010101679' (appeared 2 times, kept first)
    Original indices: [147, 239]
  • Value: '1312010100030' (appeared 2 times, kept first)
    Original indices: [148, 240]
  • Value: '1312010102513' (appeared 2 times, kept first)
    Original indices: [151, 243]
  • Value: '1312010101086' (appeared 2 times, kept first)
    Original indices: [152, 244]
  • Value: '1312010101094' (appeared 2 times, kept first)
    Original indices: [153, 245]
  • Value: '1312010102505' (appeared 2 times, kept first)
    Original indices: [154, 246]
  • Value: '1312010102257' (appeared 2 times, kept first)
    Original indices: [155, 247]
  • Value: '1312010101497' (appeared 2 times, kept first)
    Original indices: [248, 269]
  • Value: '1312010101630' (appeared 2 times, kept first)
    Original indices: [249, 270]
  • Value: '1312010101389' (appeared 2 times, kept first)
    Original indices: [250, 271]
  • Value: '1312010101662' (appeared 2 times, kept first)
    Original indices: [251, 272]
  • Value: '1312010101350' (appeared 2 times, kept first)
    Original indices: [252, 273]
  • Value: '1312010101397' (appeared 2 times, kept first)
    Original indices: [253, 274]
  • Value: '1312010101405' (appeared 2 times, kept first)
    Original indices: [254, 275]
  • Value: '1312010102214' (appeared 2 times, kept first)
    Original indices: [255, 276]
  • Value: '1312010102222' (appeared 2 times, kept first)
    Original indices: [256, 277]
  • Value: '1312010101541' (appeared 2 times, kept first)
    Original indices: [257, 278]
  • Value: '1312010101757' (appeared 2 times, kept first)
    Original indices: [258, 279]
  • Value: '1312010101421' (appeared 2 times, kept first)
    Original indices: [259, 280]
  • Value: '1312010101437_1' (appeared 2 times, kept first)
    Original indices: [260, 281]
  • Value: '1312010101765' (appeared 2 times, kept first)
    Original indices: [261, 282]
  • Value: '1312010101445' (appeared 2 times, kept first)
    Original indices: [262, 283]
  • Value: '1312010101373' (appeared 2 times, kept first)
    Original indices: [263, 284]
  • Value: '1312010101525' (appeared 2 times, kept first)
    Original indices: [264, 285]
  • Value: '1312010101345' (appeared 2 times, kept first)
    Original indices: [265, 286]
  • Value: '1312010101353' (appeared 2 times, kept first)
    Original indices: [266, 287]
  • Value: '1312010101365' (appeared 2 times, kept first)
    Original indices: [267, 288]
  • Value: '1312010101357' (appeared 2 times, kept first)
    Original indices: [268, 289]
  • Value: '1312010101361' (appeared 2 times, kept first)
    Original indices: [290, 2764]
  • Value: '1312010101538' (appeared 2 times, kept first)
    Original indices: [291, 2765]
  • Value: '1312010101530' (appeared 2 times, kept first)
    Original indices: [292, 2766]
  • Value: '1312010101369' (appeared 2 times, kept first)
    Original indices: [293, 2767]
  • Value: '1312010101377' (appeared 2 times, kept first)
    Original indices: [294, 2768]
  • Value: '1312010101554' (appeared 2 times, kept first)
    Original indices: [295, 2769]
  • Value: '1312010101546' (appeared 2 times, kept first)
    Original indices: [296, 2770]
  • Value: '1312010100668' (appeared 2 times, kept first)
    Original indices: [1356, 1401]
  • Value: '1312010102109' (appeared 2 times, kept first)
    Original indices: [298, 2771]
  • Value: '1312010101670' (appeared 2 times, kept first)
    Original indices: [299, 2772]
  • Value: '1312010102117' (appeared 2 times, kept first)
    Original indices: [300, 2773]
  • Value: '1312010102133' (appeared 2 times, kept first)
    Original indices: [301, 2774]
  • Value: '1312010102624' (appeared 2 times, kept first)
    Original indices: [1626, 1627]
  • Value: '1312010102567' (appeared 2 times, kept first)
    Original indices: [964, 1058]
  • Value: '1312010101176' (appeared 2 times, kept first)
    Original indices: [551, 552]
  • Value: '1312010100153' (appeared 2 times, kept first)
    Original indices: [809, 810]
  • Value: '1312010104540' (appeared 2 times, kept first)
    Original indices: [1955, 2761]
  • Value: '1312010104528' (appeared 2 times, kept first)
    Original indices: [1533, 3540]
  • Value: '1312010100553' (appeared 2 times, kept first)
    Original indices: [1330, 1412]
  • Value: '1312010101470' (appeared 2 times, kept first)
    Original indices: [928, 1056]
  • Value: '1312010100488' (appeared 2 times, kept first)
    Original indices: [850, 851]
  • Value: '1312010100194' (appeared 2 times, kept first)
    Original indices: [1815, 1945]
  • Value: '1312010102439' (appeared 2 times, kept first)
    Original indices: [1718, 1726]
  • Value: '1312010100343' (appeared 2 times, kept first)
    Original indices: [1719, 1727]
  • Value: '1312010104438' (appeared 2 times, kept first)
    Original indices: [1843, 2872]
  • Value: '1312010100678' (appeared 2 times, kept first)
    Original indices: [1121, 1137]
  • Value: '1312010101787' (appeared 2 times, kept first)
    Original indices: [1888, 1935]
  • Value: '1312010100160' (appeared 2 times, kept first)
    Original indices: [1978, 2051]
  • Value: '1312010102046' (appeared 2 times, kept first)
    Original indices: [1196, 1213]
  • Value: '1312010103989' (appeared 2 times, kept first)
    Original indices: [630, 653]
  • Value: '1312010104164' (appeared 2 times, kept first)
    Original indices: [1199, 1264]
  • Value: '1312010102453' (appeared 2 times, kept first)
    Original indices: [1200, 1240]
  • Value: '1312010100305' (appeared 2 times, kept first)
    Original indices: [1202, 1263]
  • Value: '1312010102287' (appeared 2 times, kept first)
    Original indices: [1637, 1638]
  • Value: '1312010102368' (appeared 2 times, kept first)
    Original indices: [1722, 1732]
  • Value: '1312010102432' (appeared 2 times, kept first)
    Original indices: [1972, 1997]
  • Value: '1312010104548' (appeared 2 times, kept first)
    Original indices: [662, 2762]
  • Value: '1312010102830' (appeared 2 times, kept first)
    Original indices: [1725, 1739]
  • Value: '1312010104529' (appeared 2 times, kept first)
    Original indices: [1593, 1601]
  • Value: '1312010102792' (appeared 2 times, kept first)
    Original indices: [1728, 1744]
  • Value: '1312010101704' (appeared 2 times, kept first)
    Original indices: [434, 471]
  • Value: '1312010104170' (appeared 2 times, kept first)
    Original indices: [1210, 1317]
  • Value: '1312010101810' (appeared 2 times, kept first)
    Original indices: [1344, 1375]
  • Value: '1312010101800' (appeared 2 times, kept first)
    Original indices: [1477, 1481]
  • Value: '1312010102709' (appeared 2 times, kept first)
    Original indices: [1645, 1699]
  • Value: '1312010102800' (appeared 2 times, kept first)
    Original indices: [1729, 1745]
  • Value: '1312010102438' (appeared 2 times, kept first)
    Original indices: [1973, 1998]
  • Value: '1312010102446' (appeared 2 times, kept first)
    Original indices: [1974, 1999]
  • Value: '1312010102532' (appeared 2 times, kept first)
    Original indices: [1919, 1939]
  • Value: '1312010102462' (appeared 2 times, kept first)
    Original indices: [1975, 2048]
  • Value: '1312010102478' (appeared 2 times, kept first)
    Original indices: [1976, 2049]
  • Value: '1312010102632' (appeared 2 times, kept first)
    Original indices: [1602, 1691]
  • Value: '1312010100196' (appeared 2 times, kept first)
    Original indices: [1979, 2052]
  • Value: '1312010102717' (appeared 2 times, kept first)
    Original indices: [1603, 1646]
  • Value: '1312010102725' (appeared 2 times, kept first)
    Original indices: [1604, 1647]
  • Value: '1312010101393' (appeared 2 times, kept first)
    Original indices: [1982, 2055]
  • Value: '1312010100144' (appeared 2 times, kept first)
    Original indices: [1983, 2056]
  • Value: '1312010101385' (appeared 2 times, kept first)
    Original indices: [1984, 2057]
  • Value: '1312010100180' (appeared 2 times, kept first)
    Original indices: [1985, 2058]
  • Value: '1312010100229' (appeared 2 times, kept first)
    Original indices: [1986, 2059]
  • Value: '1312010100172' (appeared 2 times, kept first)
    Original indices: [1987, 2060]
  • Value: '1312010100935' (appeared 2 times, kept first)
    Original indices: [2004, 2090]
  • Value: '1312010100200' (appeared 2 times, kept first)
    Original indices: [1981, 2054]
  • Value: '1312010102569' (appeared 2 times, kept first)
    Original indices: [2113, 2743]
  • Value: '1312010104470' (appeared 2 times, kept first)
    Original indices: [2129, 3561]
  • Value: '1312010104478' (appeared 2 times, kept first)
    Original indices: [2137, 3554]
  • Value: '1312010104462' (appeared 2 times, kept first)
    Original indices: [2139, 3563]
  • Value: '1312010104454' (appeared 2 times, kept first)
    Original indices: [2141, 3565]
  • Value: '1312010104518' (appeared 2 times, kept first)
    Original indices: [2145, 3617]
  • Value: '1312010104510' (appeared 2 times, kept first)
    Original indices: [2146, 3152]
  • Value: '1312010104486' (appeared 2 times, kept first)
    Original indices: [2147, 3553]
  • Value: '1312010104502' (appeared 2 times, kept first)
    Original indices: [2148, 3544]
  • Value: '1312010104551' (appeared 2 times, kept first)
    Original indices: [2149, 3567]
  • Value: '1312010104535' (appeared 2 times, kept first)
    Original indices: [2150, 3569]
  • Value: '1312010104494' (appeared 2 times, kept first)
    Original indices: [356, 3552]
  • Value: '1312010100689' (appeared 2 times, kept first)
    Original indices: [2204, 2353]
  • Value: '1312010100996' (appeared 2 times, kept first)
    Original indices: [1493, 1510]
  • Value: '1312010100101' (appeared 2 times, kept first)
    Original indices: [1494, 1511]
  • Value: '1312010100873' (appeared 2 times, kept first)
    Original indices: [2268, 2490]
  • Value: '1312010102452' (appeared 2 times, kept first)
    Original indices: [2410, 2561]
  • Value: '1312010103784' (appeared 2 times, kept first)
    Original indices: [2411, 2491]
  • Value: '1312010101781' (appeared 2 times, kept first)
    Original indices: [2423, 2508]
  • Value: '1312010104544' (appeared 2 times, kept first)
    Original indices: [2533, 3537]
  • Value: '1312010104536' (appeared 2 times, kept first)
    Original indices: [2543, 3538]
  • Value: '1312010104547' (appeared 2 times, kept first)
    Original indices: [2553, 3443]
  • Value: '1312010101179' (appeared 2 times, kept first)
    Original indices: [1495, 1512]
  • Value: '1312010104586' (appeared 2 times, kept first)
    Original indices: [2673, 3354]
  • Value: '1312010104532' (appeared 2 times, kept first)
    Original indices: [2674, 3525]
  • Value: '1312010100400' (appeared 2 times, kept first)
    Original indices: [2682, 2696]
  • Value: '1312010102906' (appeared 2 times, kept first)
    Original indices: [2719, 2744]
  • Value: '1312010104556' (appeared 2 times, kept first)
    Original indices: [2760, 3362]
  • Value: '1312010100339' (appeared 2 times, kept first)
    Original indices: [2800, 2801]
  • Value: '1312010102480' (appeared 2 times, kept first)
    Original indices: [2815, 2839]
  • Value: '1312010102245' (appeared 2 times, kept first)
    Original indices: [2822, 2849]
  • Value: '1312010101974' (appeared 2 times, kept first)
    Original indices: [2823, 2850]
  • Value: '1312010102213' (appeared 2 times, kept first)
    Original indices: [2835, 2842]
  • Value: '1312010102357' (appeared 2 times, kept first)
    Original indices: [2836, 2854]
  • Value: '1312010104588' (appeared 2 times, kept first)
    Original indices: [2900, 3022]
  • Value: '1312010104580' (appeared 2 times, kept first)
    Original indices: [2901, 3023]
  • Value: '1312010104572' (appeared 2 times, kept first)
    Original indices: [2904, 3024]
  • Value: '1312010104564' (appeared 2 times, kept first)
    Original indices: [2905, 3363]
  • Value: '1312010100619' (appeared 2 times, kept first)
    Original indices: [1496, 1528]
  • Value: '1312010101919' (appeared 2 times, kept first)
    Original indices: [860, 2583]
  • Value: '1312010100719' (appeared 2 times, kept first)
    Original indices: [2927, 3011]
  • Value: '1312010101293' (appeared 2 times, kept first)
    Original indices: [2944, 3016]
  • Value: '1312010100566' (appeared 2 times, kept first)
    Original indices: [2958, 3012]
  • Value: '1312010104359' (appeared 2 times, kept first)
    Original indices: [3067, 3101]
  • Value: '1312010104555' (appeared 2 times, kept first)
    Original indices: [3072, 3441]
  • Value: '1312010100093' (appeared 2 times, kept first)
    Original indices: [1497, 1513]
  • Value: '1312010102364' (appeared 2 times, kept first)
    Original indices: [3076, 3095]
  • Value: '1312010104579' (appeared 2 times, kept first)
    Original indices: [3091, 3438]
  • Value: '1312010104563' (appeared 2 times, kept first)
    Original indices: [3094, 3440]
  • Value: '1312010103720' (appeared 2 times, kept first)
    Original indices: [3171, 3197]
  • Value: '1312010102479' (appeared 2 times, kept first)
    Original indices: [3219, 3244]
  • Value: '1312010104584' (appeared 2 times, kept first)
    Original indices: [3246, 3530]
  • Value: '1312010104592' (appeared 2 times, kept first)
    Original indices: [3249, 3432]
  • Value: '1312010100793' (appeared 2 times, kept first)
    Original indices: [1500, 1516]
  • Value: '1312010100588' (appeared 2 times, kept first)
    Original indices: [3282, 3283]
  • Value: '1312010100703' (appeared 2 times, kept first)
    Original indices: [3295, 3325]
  • Value: '1312010104571' (appeared 2 times, kept first)
    Original indices: [3327, 3439]
  • Value: '1312010104587' (appeared 2 times, kept first)
    Original indices: [3329, 3437]
  • Value: '1312010104565' (appeared 2 times, kept first)
    Original indices: [3333, 3358]
  • Value: '1312010104656' (appeared 2 times, kept first)
    Original indices: [3352, 3353]
  • Value: '1312010101904' (appeared 2 times, kept first)
    Original indices: [3369, 3385]
  • Value: '1312010101896' (appeared 2 times, kept first)
    Original indices: [3370, 3380]
  • Value: '1312010104559' (appeared 2 times, kept first)
    Original indices: [3433, 3557]
  • Value: '1312010104527' (appeared 2 times, kept first)
    Original indices: [3434, 3570]
  • Value: '1312010104524' (appeared 2 times, kept first)
    Original indices: [3442, 3527]
  • Value: '1312010104539' (appeared 2 times, kept first)
    Original indices: [3444, 3892]
  • Value: '1312010104567' (appeared 2 times, kept first)
    Original indices: [3445, 3545]
  • Value: '1312010104514' (appeared 2 times, kept first)
    Original indices: [365, 3852]
  • Value: '1312010100489' (appeared 2 times, kept first)
    Original indices: [3451, 3462]
  • Value: '1312010101216' (appeared 2 times, kept first)
    Original indices: [1501, 1523]
  • Value: '1312010102964' (appeared 2 times, kept first)
    Original indices: [3465, 3512]
  • Value: '1312010102619' (appeared 2 times, kept first)
    Original indices: [3489, 3510]
  • Value: '1312010104531' (appeared 2 times, kept first)
    Original indices: [3529, 3893]
  • Value: '1312010104575' (appeared 2 times, kept first)
    Original indices: [3543, 3547]
  • Value: '1312010101258' (appeared 2 times, kept first)
    Original indices: [3645, 3698]
  • Value: '1312010101198' (appeared 2 times, kept first)
    Original indices: [3646, 3653]
  • Value: '1312010100536' (appeared 2 times, kept first)
    Original indices: [3647, 3654]
  • Value: '1312010100747' (appeared 2 times, kept first)
    Original indices: [571, 609]
  • Value: '1312010102122' (appeared 2 times, kept first)
    Original indices: [3692, 3693]
  • Value: '1312010101004' (appeared 2 times, kept first)
    Original indices: [3706, 3756]
  • Value: '1312010104466' (appeared 2 times, kept first)
    Original indices: [3717, 3746]
  • Value: '1312010100291' (appeared 2 times, kept first)
    Original indices: [3784, 3820]
  • Value: '1312010100812' (appeared 2 times, kept first)
    Original indices: [3785, 3829]

================================================================================

Input file: BEMBOU_SANS_DOUBLON.gpkg
Output file: BEMBOU_SANS_DOUBLON_no_duplicates.gpkg
----------------------------------------
STATUS: SUCCESS
Original records: 2,083
Cleaned records: 1,992
Removed records: 91
Removal rate: 4.37%

Duplicate values that were found and cleaned:
  • Value: '1332010201474' (appeared 6 times, kept first)
    Original indices: [1207, 1213, 1215, 1216, 1217, 1375]
  • Value: '1332010200965' (appeared 6 times, kept first)
    Original indices: [1986, 1987, 1988, 1989, 1990, 1991]
  • Value: 'LIGNES' (appeared 5 times, kept first)
    Original indices: [869, 1254, 1261, 1440, 1624]
  • Value: '1332010200900' (appeared 4 times, kept first)
    Original indices: [1413, 1423, 1438, 1485]
  • Value: '1332010202727' (appeared 4 times, kept first)
    Original indices: [1420, 1431, 1452, 1492]
  • Value: '1332010204012' (appeared 4 times, kept first)
    Original indices: [1946, 1980, 2011, 2013]
  • Value: '1332010200876' (appeared 3 times, kept first)
    Original indices: [1409, 1430, 1451]
  • Value: '1332010202719' (appeared 3 times, kept first)
    Original indices: [1421, 1429, 1493]
  • Value: '1332010203279' (appeared 3 times, kept first)
    Original indices: [1743, 1754, 1755]
  • Value: '1332010203102' (appeared 2 times, kept first)
    Original indices: [305, 331]
  • Value: '1332010203848' (appeared 2 times, kept first)
    Original indices: [851, 852]
  • Value: '1332010203656' (appeared 2 times, kept first)
    Original indices: [749, 776]
  • Value: '1332010203574' (appeared 2 times, kept first)
    Original indices: [377, 445]
  • Value: '1332010201916' (appeared 2 times, kept first)
    Original indices: [281, 348]
  • Value: '1332010201936' (appeared 2 times, kept first)
    Original indices: [395, 402]
  • Value: '1332010202432' (appeared 2 times, kept first)
    Original indices: [933, 973]
  • Value: '1332010202333' (appeared 2 times, kept first)
    Original indices: [200, 1248]
  • Value: '1332010202058' (appeared 2 times, kept first)
    Original indices: [285, 312]
  • Value: '1332010201113' (appeared 2 times, kept first)
    Original indices: [82, 148]
  • Value: '1332010202018' (appeared 2 times, kept first)
    Original indices: [381, 446]
  • Value: '1332010201323' (appeared 2 times, kept first)
    Original indices: [966, 991]
  • Value: '1332010201275' (appeared 2 times, kept first)
    Original indices: [971, 994]
  • Value: '1332010203049' (appeared 2 times, kept first)
    Original indices: [289, 324]
  • Value: '1332010201183' (appeared 2 times, kept first)
    Original indices: [344, 359]
  • Value: '1332010201464' (appeared 2 times, kept first)
    Original indices: [317, 329]
  • Value: '1332010203094' (appeared 2 times, kept first)
    Original indices: [292, 323]
  • Value: '1332010201137' (appeared 2 times, kept first)
    Original indices: [318, 328]
  • Value: '1332010201060' (appeared 2 times, kept first)
    Original indices: [26, 134]
  • Value: '1332010203443' (appeared 2 times, kept first)
    Original indices: [754, 796]
  • Value: '1332010204041' (appeared 2 times, kept first)
    Original indices: [827, 842]
  • Value: '1332010201461' (appeared 2 times, kept first)
    Original indices: [417, 447]
  • Value: '1332010203492' (appeared 2 times, kept first)
    Original indices: [525, 534]
  • Value: '1332010203361' (appeared 2 times, kept first)
    Original indices: [942, 1033]
  • Value: '1332010201194' (appeared 2 times, kept first)
    Original indices: [371, 387]
  • Value: '1332010201482' (appeared 2 times, kept first)
    Original indices: [1098, 1099]
  • Value: '1332010203854' (appeared 2 times, kept first)
    Original indices: [27, 54]
  • Value: '1332010201315' (appeared 2 times, kept first)
    Original indices: [972, 995]
  • Value: '1332010202580' (appeared 2 times, kept first)
    Original indices: [1330, 1337]
  • Value: '1332010201147' (appeared 2 times, kept first)
    Original indices: [1346, 1347]
  • Value: '1332010201169' (appeared 2 times, kept first)
    Original indices: [330, 349]
  • Value: '1332010200868' (appeared 2 times, kept first)
    Original indices: [1410, 1432]
  • Value: '1332010200908' (appeared 2 times, kept first)
    Original indices: [1411, 1433]
  • Value: 'POINTS' (appeared 2 times, kept first)
    Original indices: [1412, 1422]
  • Value: '1332010201479' (appeared 2 times, kept first)
    Original indices: [1194, 1195]
  • Value: '1332010200892' (appeared 2 times, kept first)
    Original indices: [1414, 1434]
  • Value: '1332010202641' (appeared 2 times, kept first)
    Original indices: [1415, 1424]
  • Value: '1332010200884' (appeared 2 times, kept first)
    Original indices: [1416, 1425]
  • Value: '1332010202759' (appeared 2 times, kept first)
    Original indices: [1417, 1426]
  • Value: '1332010202743' (appeared 2 times, kept first)
    Original indices: [1418, 1427]
  • Value: '1332010202913' (appeared 2 times, kept first)
    Original indices: [1419, 1428]
  • Value: '1332010201307' (appeared 2 times, kept first)
    Original indices: [969, 992]
  • Value: '1332010203979' (appeared 2 times, kept first)
    Original indices: [69, 527]
  • Value: '1332010202901' (appeared 2 times, kept first)
    Original indices: [1453, 1469]
  • Value: '1332010202673' (appeared 2 times, kept first)
    Original indices: [1457, 1483]
  • Value: '1332010202655' (appeared 2 times, kept first)
    Original indices: [1468, 1473]
  • Value: '1332010202657' (appeared 2 times, kept first)
    Original indices: [1470, 1482]
  • Value: '1332010203552' (appeared 2 times, kept first)
    Original indices: [1534, 1544]
  • Value: '1332010203515' (appeared 2 times, kept first)
    Original indices: [1536, 1545]
  • Value: '1332010201020' (appeared 2 times, kept first)
    Original indices: [1638, 1713]
  • Value: '1332010203108' (appeared 2 times, kept first)
    Original indices: [1642, 1672]
  • Value: '1332010203904' (appeared 2 times, kept first)
    Original indices: [1679, 1719]
  • Value: '1332010203947' (appeared 2 times, kept first)
    Original indices: [1685, 1720]
  • Value: '1332010202651' (appeared 2 times, kept first)
    Original indices: [1700, 1701]
  • Value: '1332010203110' (appeared 2 times, kept first)
    Original indices: [303, 335]
  • Value: '1332010203978' (appeared 2 times, kept first)
    Original indices: [1846, 1850]
  • Value: '1332010202421' (appeared 2 times, kept first)
    Original indices: [1869, 1870]
  • Value: '1332010202429' (appeared 2 times, kept first)
    Original indices: [1871, 1979]
  • Value: '1332010204078' (appeared 2 times, kept first)
    Original indices: [1944, 1945]
  • Value: '1332010201291' (appeared 2 times, kept first)
    Original indices: [970, 993]
  • Value: '1332010203461' (appeared 2 times, kept first)
    Original indices: [0, 127]
  • Value: '1332010203716' (appeared 2 times, kept first)
    Original indices: [2012, 2014]

================================================================================

Input file: DIMBOLI_SANS_DOUBLON.gpkg
Output file: DIMBOLI_SANS_DOUBLON_no_duplicates.gpkg
----------------------------------------
STATUS: SUCCESS
Original records: 3,268
Cleaned records: 3,049
Removed records: 219
Removal rate: 6.70%

Duplicate values that were found and cleaned:
  • Value: '1312020100784' (appeared 4 times, kept first)
    Original indices: [286, 289, 473, 476]
  • Value: '1312020101701' (appeared 3 times, kept first)
    Original indices: [157, 394, 580]
  • Value: '1312020101814' (appeared 3 times, kept first)
    Original indices: [158, 395, 578]
  • Value: '1312020102036' (appeared 3 times, kept first)
    Original indices: [154, 391, 579]
  • Value: '1312020100270' (appeared 3 times, kept first)
    Original indices: [261, 361, 581]
  • Value: '1312020103520' (appeared 3 times, kept first)
    Original indices: [116, 117, 958]
  • Value: '1312020100301' (appeared 3 times, kept first)
    Original indices: [2586, 2587, 2588]
  • Value: '1312020100232' (appeared 2 times, kept first)
    Original indices: [236, 336]
  • Value: '1312020102028' (appeared 2 times, kept first)
    Original indices: [237, 337]
  • Value: '1312020102301' (appeared 2 times, kept first)
    Original indices: [238, 338]
  • Value: '1312020100254' (appeared 2 times, kept first)
    Original indices: [239, 339]
  • Value: '1312020101041' (appeared 2 times, kept first)
    Original indices: [240, 340]
  • Value: '1312020102227' (appeared 2 times, kept first)
    Original indices: [241, 341]
  • Value: '1312020103434' (appeared 2 times, kept first)
    Original indices: [129, 957]
  • Value: '1312020103458' (appeared 2 times, kept first)
    Original indices: [130, 961]
  • Value: '1312020100262' (appeared 2 times, kept first)
    Original indices: [242, 342]
  • Value: '1312020101135' (appeared 2 times, kept first)
    Original indices: [243, 343]
  • Value: '1312020100792' (appeared 2 times, kept first)
    Original indices: [309, 496]
  • Value: '1312020103201' (appeared 2 times, kept first)
    Original indices: [310, 497]
  • Value: '1312020103272' (appeared 2 times, kept first)
    Original indices: [311, 498]
  • Value: '1312020103380' (appeared 2 times, kept first)
    Original indices: [312, 499]
  • Value: '1312020100014' (appeared 2 times, kept first)
    Original indices: [137, 826]
  • Value: '1312020100055' (appeared 2 times, kept first)
    Original indices: [138, 825]
  • Value: '1312020100757' (appeared 2 times, kept first)
    Original indices: [313, 500]
  • Value: '1312020100177' (appeared 2 times, kept first)
    Original indices: [314, 501]
  • Value: '1312020100814' (appeared 2 times, kept first)
    Original indices: [315, 502]
  • Value: '1312020103207' (appeared 2 times, kept first)
    Original indices: [316, 503]
  • Value: '1312020100815' (appeared 2 times, kept first)
    Original indices: [317, 504]
  • Value: '1312020100079' (appeared 2 times, kept first)
    Original indices: [318, 505]
  • Value: '1312020103525' (appeared 2 times, kept first)
    Original indices: [145, 964]
  • Value: '1312020100781' (appeared 2 times, kept first)
    Original indices: [319, 506]
  • Value: '1312020100796' (appeared 2 times, kept first)
    Original indices: [320, 507]
  • Value: '1312020100823' (appeared 2 times, kept first)
    Original indices: [321, 508]
  • Value: '1312020103393' (appeared 2 times, kept first)
    Original indices: [322, 509]
  • Value: '1312020103474' (appeared 2 times, kept first)
    Original indices: [323, 510]
  • Value: '1312020103482' (appeared 2 times, kept first)
    Original indices: [324, 511]
  • Value: '1312020103199' (appeared 2 times, kept first)
    Original indices: [325, 512]
  • Value: '1312020103248' (appeared 2 times, kept first)
    Original indices: [326, 513]
  • Value: '1312020100816' (appeared 2 times, kept first)
    Original indices: [327, 514]
  • Value: '1312020100808' (appeared 2 times, kept first)
    Original indices: [328, 515]
  • Value: '1312020103589' (appeared 2 times, kept first)
    Original indices: [329, 516]
  • Value: '1312020100884' (appeared 2 times, kept first)
    Original indices: [330, 517]
  • Value: '1312020103613' (appeared 2 times, kept first)
    Original indices: [331, 518]
  • Value: '1312020103191' (appeared 2 times, kept first)
    Original indices: [332, 519]
  • Value: '1312020103573' (appeared 2 times, kept first)
    Original indices: [333, 520]
  • Value: '1312020101940' (appeared 2 times, kept first)
    Original indices: [1009, 1019]
  • Value: '1312020102100' (appeared 2 times, kept first)
    Original indices: [1244, 1283]
  • Value: '1312020103038' (appeared 2 times, kept first)
    Original indices: [570, 574]
  • Value: '1312020103334' (appeared 2 times, kept first)
    Original indices: [932, 933]
  • Value: '1312020101929' (appeared 2 times, kept first)
    Original indices: [764, 765]
  • Value: '1312020101658' (appeared 2 times, kept first)
    Original indices: [726, 1868]
  • Value: '1312020101970' (appeared 2 times, kept first)
    Original indices: [737, 824]
  • Value: '1312020101561' (appeared 2 times, kept first)
    Original indices: [594, 595]
  • Value: '1312020100146' (appeared 2 times, kept first)
    Original indices: [1082, 1142]
  • Value: '1312020102207' (appeared 2 times, kept first)
    Original indices: [582, 583]
  • Value: '1312020101663' (appeared 2 times, kept first)
    Original indices: [775, 802]
  • Value: '1312020102078' (appeared 2 times, kept first)
    Original indices: [1378, 1382]
  • Value: '1312020102045' (appeared 2 times, kept first)
    Original indices: [1379, 1384]
  • Value: '1312020101326' (appeared 2 times, kept first)
    Original indices: [1377, 1380]
  • Value: '1312020103466' (appeared 2 times, kept first)
    Original indices: [284, 471]
  • Value: '1312020100776' (appeared 2 times, kept first)
    Original indices: [285, 472]
  • Value: '1312020103181' (appeared 2 times, kept first)
    Original indices: [287, 474]
  • Value: '1312020103605' (appeared 2 times, kept first)
    Original indices: [288, 475]
  • Value: '1312020100749' (appeared 2 times, kept first)
    Original indices: [290, 477]
  • Value: '1312020103214' (appeared 2 times, kept first)
    Original indices: [291, 478]
  • Value: '1312020100790' (appeared 2 times, kept first)
    Original indices: [292, 479]
  • Value: '1312020100056' (appeared 2 times, kept first)
    Original indices: [66, 1174]
  • Value: '1312020100900' (appeared 2 times, kept first)
    Original indices: [293, 480]
  • Value: '1312020103621' (appeared 2 times, kept first)
    Original indices: [294, 481]
  • Value: '1312020100765' (appeared 2 times, kept first)
    Original indices: [295, 482]
  • Value: '1312020100806' (appeared 2 times, kept first)
    Original indices: [296, 483]
  • Value: '1312020100820' (appeared 2 times, kept first)
    Original indices: [297, 484]
  • Value: '1312020100798' (appeared 2 times, kept first)
    Original indices: [298, 485]
  • Value: '1312020100812' (appeared 2 times, kept first)
    Original indices: [299, 486]
  • Value: '1312020100804' (appeared 2 times, kept first)
    Original indices: [300, 487]
  • Value: '1312020100703' (appeared 2 times, kept first)
    Original indices: [301, 488]
  • Value: '1312020103189' (appeared 2 times, kept first)
    Original indices: [302, 489]
  • Value: '1312020100908' (appeared 2 times, kept first)
    Original indices: [303, 490]
  • Value: '1312020103288' (appeared 2 times, kept first)
    Original indices: [304, 491]
  • Value: '1312020103301' (appeared 2 times, kept first)
    Original indices: [305, 492]
  • Value: '1312020100741' (appeared 2 times, kept first)
    Original indices: [201, 438]
  • Value: '1312020100718' (appeared 2 times, kept first)
    Original indices: [202, 439]
  • Value: '1312020100710' (appeared 2 times, kept first)
    Original indices: [203, 440]
  • Value: '1312020100726' (appeared 2 times, kept first)
    Original indices: [204, 441]
  • Value: '1312020100807' (appeared 2 times, kept first)
    Original indices: [306, 493]
  • Value: '1312020100544' (appeared 2 times, kept first)
    Original indices: [206, 443]
  • Value: '1312020100023' (appeared 2 times, kept first)
    Original indices: [207, 444]
  • Value: '1312020103112' (appeared 2 times, kept first)
    Original indices: [87, 146]
  • Value: '1312020100275' (appeared 2 times, kept first)
    Original indices: [208, 445]
  • Value: '1312020100259' (appeared 2 times, kept first)
    Original indices: [209, 446]
  • Value: '1312020100553' (appeared 2 times, kept first)
    Original indices: [210, 447]
  • Value: '1312020100822' (appeared 2 times, kept first)
    Original indices: [307, 494]
  • Value: '1312020100507' (appeared 2 times, kept first)
    Original indices: [212, 449]
  • Value: '1312020100523' (appeared 2 times, kept first)
    Original indices: [213, 450]
  • Value: '1312020100267' (appeared 2 times, kept first)
    Original indices: [214, 451]
  • Value: '1312020103389' (appeared 2 times, kept first)
    Original indices: [95, 96]
  • Value: '1312020100086' (appeared 2 times, kept first)
    Original indices: [215, 452]
  • Value: '1312020100078' (appeared 2 times, kept first)
    Original indices: [216, 453]
  • Value: '1312020100094' (appeared 2 times, kept first)
    Original indices: [217, 454]
  • Value: '1312020100734' (appeared 2 times, kept first)
    Original indices: [218, 455]
  • Value: '1312020100126' (appeared 2 times, kept first)
    Original indices: [219, 456]
  • Value: '1312020100924' (appeared 2 times, kept first)
    Original indices: [220, 457]
  • Value: '1312020100102' (appeared 2 times, kept first)
    Original indices: [221, 458]
  • Value: '1312020100110' (appeared 2 times, kept first)
    Original indices: [222, 459]
  • Value: '1312020100118' (appeared 2 times, kept first)
    Original indices: [223, 460]
  • Value: '1312020100057' (appeared 2 times, kept first)
    Original indices: [224, 461]
  • Value: '1312020100006' (appeared 2 times, kept first)
    Original indices: [225, 462]
  • Value: '1312020100826' (appeared 2 times, kept first)
    Original indices: [226, 463]
  • Value: '1312020100932' (appeared 2 times, kept first)
    Original indices: [227, 464]
  • Value: '1312020100842' (appeared 2 times, kept first)
    Original indices: [228, 465]
  • Value: '1312020100940' (appeared 2 times, kept first)
    Original indices: [229, 466]
  • Value: '1312020100834' (appeared 2 times, kept first)
    Original indices: [230, 467]
  • Value: '1312020100070' (appeared 2 times, kept first)
    Original indices: [231, 468]
  • Value: '1312020103528' (appeared 2 times, kept first)
    Original indices: [114, 959]
  • Value: '1312020100694' (appeared 2 times, kept first)
    Original indices: [232, 469]
  • Value: '1312020102044' (appeared 2 times, kept first)
    Original indices: [234, 334]
  • Value: '1312020103407' (appeared 2 times, kept first)
    Original indices: [118, 120]
  • Value: '1312020103381' (appeared 2 times, kept first)
    Original indices: [308, 495]
  • Value: '1312020101003' (appeared 2 times, kept first)
    Original indices: [1727, 1741]
  • Value: '1312020100334' (appeared 2 times, kept first)
    Original indices: [1758, 1782]
  • Value: '1312020101742' (appeared 2 times, kept first)
    Original indices: [1818, 1883]
  • Value: '1312020102025' (appeared 2 times, kept first)
    Original indices: [1819, 1882]
  • Value: '1312020101372' (appeared 2 times, kept first)
    Original indices: [1953, 2036]
  • Value: '1312020102081' (appeared 2 times, kept first)
    Original indices: [1976, 2047]
  • Value: '1312020102319' (appeared 2 times, kept first)
    Original indices: [1977, 2048]
  • Value: '1312020100418' (appeared 2 times, kept first)
    Original indices: [1978, 2049]
  • Value: '1312020102311' (appeared 2 times, kept first)
    Original indices: [1979, 2050]
  • Value: '1312020101728' (appeared 2 times, kept first)
    Original indices: [1980, 2051]
  • Value: '1312020102097' (appeared 2 times, kept first)
    Original indices: [1981, 2052]
  • Value: '1312020101215' (appeared 2 times, kept first)
    Original indices: [1982, 2053]
  • Value: '1312020102280' (appeared 2 times, kept first)
    Original indices: [1983, 2054]
  • Value: '1312020102303' (appeared 2 times, kept first)
    Original indices: [1984, 2055]
  • Value: '1312020101013' (appeared 2 times, kept first)
    Original indices: [1985, 2056]
  • Value: '1312020101306' (appeared 2 times, kept first)
    Original indices: [1986, 2057]
  • Value: '1312020101021' (appeared 2 times, kept first)
    Original indices: [1987, 2058]
  • Value: '1312020101005' (appeared 2 times, kept first)
    Original indices: [1988, 2059]
  • Value: '1312020101085' (appeared 2 times, kept first)
    Original indices: [1989, 2060]
  • Value: '1312020102423' (appeared 2 times, kept first)
    Original indices: [1990, 2061]
  • Value: '1312020102105' (appeared 2 times, kept first)
    Original indices: [1991, 2062]
  • Value: '1312020101093' (appeared 2 times, kept first)
    Original indices: [1992, 2063]
  • Value: '1312020101381' (appeared 2 times, kept first)
    Original indices: [1993, 2064]
  • Value: '1312020101389' (appeared 2 times, kept first)
    Original indices: [1994, 2065]
  • Value: '1312020101397' (appeared 2 times, kept first)
    Original indices: [1995, 2066]
  • Value: '1312020102340' (appeared 2 times, kept first)
    Original indices: [1996, 2067]
  • Value: '1312020102348' (appeared 2 times, kept first)
    Original indices: [1997, 2068]
  • Value: '1312020102356' (appeared 2 times, kept first)
    Original indices: [1998, 2069]
  • Value: '1312020101116' (appeared 2 times, kept first)
    Original indices: [1999, 2070]
  • Value: '1312020102347' (appeared 2 times, kept first)
    Original indices: [2000, 2071]
  • Value: '1312020101392' (appeared 2 times, kept first)
    Original indices: [2001, 2107]
  • Value: '1312020102355' (appeared 2 times, kept first)
    Original indices: [2002, 2108]
  • Value: '1312020102360' (appeared 2 times, kept first)
    Original indices: [2003, 2072]
  • Value: '1312020102368' (appeared 2 times, kept first)
    Original indices: [2004, 2073]
  • Value: '1312020102363' (appeared 2 times, kept first)
    Original indices: [2005, 2074]
  • Value: '1312020102371' (appeared 2 times, kept first)
    Original indices: [2006, 2075]
  • Value: '1312020102379' (appeared 2 times, kept first)
    Original indices: [2007, 2076]
  • Value: '1312020102384' (appeared 2 times, kept first)
    Original indices: [2008, 2077]
  • Value: '1312020102387' (appeared 2 times, kept first)
    Original indices: [2009, 2078]
  • Value: '1312020102343' (appeared 2 times, kept first)
    Original indices: [2010, 2079]
  • Value: '1312020102273' (appeared 2 times, kept first)
    Original indices: [2011, 2080]
  • Value: '1312020102247' (appeared 2 times, kept first)
    Original indices: [2012, 2081]
  • Value: '1312020102279' (appeared 2 times, kept first)
    Original indices: [2013, 2082]
  • Value: '1312020102364' (appeared 2 times, kept first)
    Original indices: [2014, 2083]
  • Value: '1312020102372' (appeared 2 times, kept first)
    Original indices: [2015, 2084]
  • Value: '1312020102287' (appeared 2 times, kept first)
    Original indices: [2016, 2085]
  • Value: '1312020102380' (appeared 2 times, kept first)
    Original indices: [2017, 2086]
  • Value: '1312020102388' (appeared 2 times, kept first)
    Original indices: [2018, 2087]
  • Value: '1312020102344' (appeared 2 times, kept first)
    Original indices: [2019, 2088]
  • Value: '1312020102219' (appeared 2 times, kept first)
    Original indices: [2184, 2186]
  • Value: '1312020102234' (appeared 2 times, kept first)
    Original indices: [2321, 2330]
  • Value: '1312020102318' (appeared 2 times, kept first)
    Original indices: [2333, 2362]
  • Value: '1312020101115' (appeared 2 times, kept first)
    Original indices: [2345, 2534]
  • Value: '1312020101235' (appeared 2 times, kept first)
    Original indices: [2425, 2439]
  • Value: '1312020101176' (appeared 2 times, kept first)
    Original indices: [2431, 2459]
  • Value: '1312020101783' (appeared 2 times, kept first)
    Original indices: [2466, 2615]
  • Value: '1312020101767' (appeared 2 times, kept first)
    Original indices: [2470, 2614]
  • Value: '1312020101035' (appeared 2 times, kept first)
    Original indices: [2475, 2613]
  • Value: '1312020102321' (appeared 2 times, kept first)
    Original indices: [2476, 2612]
  • Value: '1312020102361' (appeared 2 times, kept first)
    Original indices: [2482, 2662]
  • Value: '1312020102358' (appeared 2 times, kept first)
    Original indices: [2484, 2611]
  • Value: '1312020101054' (appeared 2 times, kept first)
    Original indices: [2499, 2674]
  • Value: '1312020101109' (appeared 2 times, kept first)
    Original indices: [2509, 2678]
  • Value: '1312020101172' (appeared 2 times, kept first)
    Original indices: [2559, 2660]
  • Value: '1312020100391' (appeared 2 times, kept first)
    Original indices: [2562, 2591]
  • Value: '1312020101313' (appeared 2 times, kept first)
    Original indices: [2563, 2592]
  • Value: '1312020100922' (appeared 2 times, kept first)
    Original indices: [2568, 2593]
  • Value: '1312020100890' (appeared 2 times, kept first)
    Original indices: [2569, 2594]
  • Value: '1312020100938' (appeared 2 times, kept first)
    Original indices: [2570, 2595]
  • Value: '1312020100914' (appeared 2 times, kept first)
    Original indices: [2571, 2596]
  • Value: '1312020100407' (appeared 2 times, kept first)
    Original indices: [2572, 2598]
  • Value: '1312020100399' (appeared 2 times, kept first)
    Original indices: [2573, 2600]
  • Value: '1312020100325' (appeared 2 times, kept first)
    Original indices: [2574, 2601]
  • Value: '1312020100317' (appeared 2 times, kept first)
    Original indices: [2575, 2602]
  • Value: '1312020100293' (appeared 2 times, kept first)
    Original indices: [2576, 2603]
  • Value: '1312020101325' (appeared 2 times, kept first)
    Original indices: [2577, 2599]
  • Value: '1312020101320' (appeared 2 times, kept first)
    Original indices: [2579, 2580]
  • Value: '1312020101822' (appeared 2 times, kept first)
    Original indices: [235, 335]
  • Value: '1312020101270' (appeared 2 times, kept first)
    Original indices: [2638, 2639]
  • Value: '1312020100321' (appeared 2 times, kept first)
    Original indices: [2692, 2720]
  • Value: '1312020100337' (appeared 2 times, kept first)
    Original indices: [2695, 2718]
  • Value: '1312020102205' (appeared 2 times, kept first)
    Original indices: [2776, 2786]
  • Value: '1312020102283' (appeared 2 times, kept first)
    Original indices: [2777, 2787]
  • Value: '1312020102174' (appeared 2 times, kept first)
    Original indices: [2780, 2781]
  • Value: '1312020102182' (appeared 2 times, kept first)
    Original indices: [2801, 2821]
  • Value: '1312020102206' (appeared 2 times, kept first)
    Original indices: [2802, 2822]
  • Value: '1312020102394' (appeared 2 times, kept first)
    Original indices: [2803, 2823]
  • Value: '1312020102434' (appeared 2 times, kept first)
    Original indices: [2804, 2805]
  • Value: '1312020102415' (appeared 2 times, kept first)
    Original indices: [2808, 2809]
  • Value: '1312020103042' (appeared 2 times, kept first)
    Original indices: [2978, 2992]
  • Value: '1312020101981' (appeared 2 times, kept first)
    Original indices: [3225, 3227]
  • Value: '1312020100474' (appeared 2 times, kept first)
    Original indices: [3229, 3230]
  • Value: '1312020101102' (appeared 2 times, kept first)
    Original indices: [3256, 3263]

================================================================================

Input file: DINDEFELLO_SANS_DOUBLON.gpkg
Output file: DINDEFELLO_SANS_DOUBLON_no_duplicates.gpkg
----------------------------------------
STATUS: SUCCESS
Original records: 1,845
Cleaned records: 1,773
Removed records: 72
Removal rate: 3.90%

Duplicate values that were found and cleaned:
  • Value: '1312010300041' (appeared 11 times, kept first)
    Original indices: [608, 610, 611, 612, 614, 618, 621, 626, 629, 792, 795]
  • Value: '1312010301777' (appeared 8 times, kept first)
    Original indices: [1255, 1256, 1257, 1397, 1411, 1412, 1450, 1451]
  • Value: '1312010300484' (appeared 3 times, kept first)
    Original indices: [936, 980, 1007]
  • Value: '1312010302269' (appeared 2 times, kept first)
    Original indices: [808, 809]
  • Value: '1312010301112' (appeared 2 times, kept first)
    Original indices: [567, 585]
  • Value: '1312010301093' (appeared 2 times, kept first)
    Original indices: [328, 361]
  • Value: '1312010300024' (appeared 2 times, kept first)
    Original indices: [466, 565]
  • Value: '1312010300023' (appeared 2 times, kept first)
    Original indices: [95, 113]
  • Value: '1312010300060' (appeared 2 times, kept first)
    Original indices: [96, 112]
  • Value: '1312010300720' (appeared 2 times, kept first)
    Original indices: [97, 114]
  • Value: '1312010300166' (appeared 2 times, kept first)
    Original indices: [98, 115]
  • Value: '1312010300754' (appeared 2 times, kept first)
    Original indices: [844, 861]
  • Value: '1312010300056' (appeared 2 times, kept first)
    Original indices: [788, 791]
  • Value: '1312010302879' (appeared 2 times, kept first)
    Original indices: [421, 941]
  • Value: '1312010300462' (appeared 2 times, kept first)
    Original indices: [609, 646]
  • Value: '1312010301327' (appeared 2 times, kept first)
    Original indices: [501, 518]
  • Value: '1312010301340' (appeared 2 times, kept first)
    Original indices: [531, 586]
  • Value: '1312010300142' (appeared 2 times, kept first)
    Original indices: [613, 745]
  • Value: '1312010301238' (appeared 2 times, kept first)
    Original indices: [319, 369]
  • Value: '1312010302596' (appeared 2 times, kept first)
    Original indices: [189, 223]
  • Value: '1312010300461' (appeared 2 times, kept first)
    Original indices: [615, 639]
  • Value: '1312010300470' (appeared 2 times, kept first)
    Original indices: [789, 793]
  • Value: '1312010302612' (appeared 2 times, kept first)
    Original indices: [192, 232]
  • Value: '1312010300883' (appeared 2 times, kept first)
    Original indices: [790, 794]
  • Value: '1312010301814' (appeared 2 times, kept first)
    Original indices: [167, 178]
  • Value: '1312010301772' (appeared 2 times, kept first)
    Original indices: [168, 188]
  • Value: '1312010300900' (appeared 2 times, kept first)
    Original indices: [619, 767]
  • Value: '1312010300932' (appeared 2 times, kept first)
    Original indices: [620, 759]
  • Value: '1312010301242' (appeared 2 times, kept first)
    Original indices: [303, 304]
  • Value: '1312010302252' (appeared 2 times, kept first)
    Original indices: [622, 778]
  • Value: '1312010300640' (appeared 2 times, kept first)
    Original indices: [935, 979]
  • Value: '1312010300354' (appeared 2 times, kept first)
    Original indices: [306, 360]
  • Value: '1312010301042' (appeared 2 times, kept first)
    Original indices: [966, 998]
  • Value: '1312010302497' (appeared 2 times, kept first)
    Original indices: [1062, 1099]
  • Value: '1312010300256' (appeared 2 times, kept first)
    Original indices: [1122, 1133]
  • Value: '1312010300180' (appeared 2 times, kept first)
    Original indices: [1156, 1218]
  • Value: '1312010300726' (appeared 2 times, kept first)
    Original indices: [1252, 1382]
  • Value: '1312010301970' (appeared 2 times, kept first)
    Original indices: [1253, 1429]
  • Value: '1312010301978' (appeared 2 times, kept first)
    Original indices: [1254, 1430]
  • Value: '1312010300364' (appeared 2 times, kept first)
    Original indices: [31, 89]
  • Value: '1312010301958' (appeared 2 times, kept first)
    Original indices: [1263, 1432]
  • Value: '1312010300736' (appeared 2 times, kept first)
    Original indices: [1407, 1408]
  • Value: '1312010301960' (appeared 2 times, kept first)
    Original indices: [1523, 1549]
  • Value: '1312010301712' (appeared 2 times, kept first)
    Original indices: [1524, 1551]
  • Value: '1312010301934' (appeared 2 times, kept first)
    Original indices: [1525, 1548]
  • Value: '1312010302350' (appeared 2 times, kept first)
    Original indices: [1552, 1595]
  • Value: '1312010300213' (appeared 2 times, kept first)
    Original indices: [1554, 1596]
  • Value: '1312010300189' (appeared 2 times, kept first)
    Original indices: [1555, 1597]
  • Value: '1312010302373' (appeared 2 times, kept first)
    Original indices: [1563, 1564]
  • Value: '1312010301229' (appeared 2 times, kept first)
    Original indices: [1602, 1640]
  • Value: '1312010301349' (appeared 2 times, kept first)
    Original indices: [1656, 1723]
  • Value: '1312010301321' (appeared 2 times, kept first)
    Original indices: [1661, 1681]
  • Value: '1312010301818' (appeared 2 times, kept first)
    Original indices: [1665, 1724]
  • Value: '1312010301812' (appeared 2 times, kept first)
    Original indices: [1666, 1693]
  • Value: '1312010301243' (appeared 2 times, kept first)
    Original indices: [1667, 1692]
  • Value: '1312010302074' (appeared 2 times, kept first)
    Original indices: [1786, 1820]

================================================================================

Input file: FONGOLEMBI_SANS_DOUBLON.gpkg
Output file: FONGOLEMBI_SANS_DOUBLON_no_duplicates.gpkg
----------------------------------------
STATUS: SUCCESS
Original records: 1,546
Cleaned records: 1,436
Removed records: 110
Removal rate: 7.12%

Duplicate values that were found and cleaned:
  • Value: '1312020203363' (appeared 10 times, kept first)
    Original indices: [31, 32, 33, 34, 35, 36, 37, 38, 39, 50]
  • Value: '1312020201925' (appeared 8 times, kept first)
    Original indices: [191, 192, 193, 194, 195, 196, 197, 921]
  • Value: '1312020201033' (appeared 4 times, kept first)
    Original indices: [18, 150, 164, 165]
  • Value: '1312020201335' (appeared 3 times, kept first)
    Original indices: [254, 255, 262]
  • Value: '1312020201370' (appeared 3 times, kept first)
    Original indices: [1175, 1196, 1225]
  • Value: '1312020203301' (appeared 3 times, kept first)
    Original indices: [1490, 1491, 1492]
  • Value: '1312020202228' (appeared 2 times, kept first)
    Original indices: [273, 282]
  • Value: '1312020203864' (appeared 2 times, kept first)
    Original indices: [274, 283]
  • Value: '1312020203896' (appeared 2 times, kept first)
    Original indices: [275, 284]
  • Value: '1312020202216' (appeared 2 times, kept first)
    Original indices: [347, 394]
  • Value: '1312020203880' (appeared 2 times, kept first)
    Original indices: [277, 285]
  • Value: '1312020203872' (appeared 2 times, kept first)
    Original indices: [278, 286]
  • Value: '1312020202006' (appeared 2 times, kept first)
    Original indices: [279, 287]
  • Value: '1312020201998' (appeared 2 times, kept first)
    Original indices: [288, 987]
  • Value: '1312020203997' (appeared 2 times, kept first)
    Original indices: [309, 457]
  • Value: '1312020203344' (appeared 2 times, kept first)
    Original indices: [310, 471]
  • Value: '1312020203958' (appeared 2 times, kept first)
    Original indices: [95, 263]
  • Value: '1312020203945' (appeared 2 times, kept first)
    Original indices: [311, 489]
  • Value: '1312020203364' (appeared 2 times, kept first)
    Original indices: [369, 381]
  • Value: '1312020203643' (appeared 2 times, kept first)
    Original indices: [484, 839]
  • Value: '1312020203640' (appeared 2 times, kept first)
    Original indices: [355, 419]
  • Value: '1312020203315' (appeared 2 times, kept first)
    Original indices: [364, 380]
  • Value: '1312020202121' (appeared 2 times, kept first)
    Original indices: [486, 487]
  • Value: '1312020203503' (appeared 2 times, kept first)
    Original indices: [268, 514]
  • Value: '1312020202212' (appeared 2 times, kept first)
    Original indices: [269, 295]
  • Value: '1312020203755' (appeared 2 times, kept first)
    Original indices: [837, 838]
  • Value: '1312020203358' (appeared 2 times, kept first)
    Original indices: [845, 846]
  • Value: '1312020201773' (appeared 2 times, kept first)
    Original indices: [849, 861]
  • Value: '1312020201125' (appeared 2 times, kept first)
    Original indices: [851, 852]
  • Value: '1312020203762' (appeared 2 times, kept first)
    Original indices: [853, 855]
  • Value: '1312020202175' (appeared 2 times, kept first)
    Original indices: [865, 872]
  • Value: '1312020202092' (appeared 2 times, kept first)
    Original indices: [889, 911]
  • Value: '1312020201563' (appeared 2 times, kept first)
    Original indices: [934, 945]
  • Value: '1312020201555' (appeared 2 times, kept first)
    Original indices: [935, 971]
  • Value: '1312020201793' (appeared 2 times, kept first)
    Original indices: [938, 972]
  • Value: '1312020201809' (appeared 2 times, kept first)
    Original indices: [943, 970]
  • Value: '1312020201909' (appeared 2 times, kept first)
    Original indices: [1032, 1033]
  • Value: '1312020202146' (appeared 2 times, kept first)
    Original indices: [1037, 1038]
  • Value: '1312020201745' (appeared 2 times, kept first)
    Original indices: [1043, 1058]
  • Value: '1312020203633' (appeared 2 times, kept first)
    Original indices: [1065, 1128]
  • Value: '1312020203577' (appeared 2 times, kept first)
    Original indices: [1066, 1129]
  • Value: '1312020203609' (appeared 2 times, kept first)
    Original indices: [1067, 1130]
  • Value: '1312020202079' (appeared 2 times, kept first)
    Original indices: [1068, 1131]
  • Value: '1312020202095' (appeared 2 times, kept first)
    Original indices: [1069, 1104]
  • Value: '1312020203593' (appeared 2 times, kept first)
    Original indices: [1070, 1105]
  • Value: '1312020203585' (appeared 2 times, kept first)
    Original indices: [1071, 1106]
  • Value: '1312020202199' (appeared 2 times, kept first)
    Original indices: [1072, 1107]
  • Value: '1312020202207' (appeared 2 times, kept first)
    Original indices: [1073, 1108]
  • Value: '1312020201919' (appeared 2 times, kept first)
    Original indices: [1074, 1109]
  • Value: '1312020203601' (appeared 2 times, kept first)
    Original indices: [1075, 1110]
  • Value: '1312020202191' (appeared 2 times, kept first)
    Original indices: [1076, 1111]
  • Value: '1312020202183' (appeared 2 times, kept first)
    Original indices: [1077, 1112]
  • Value: '1312020203625' (appeared 2 times, kept first)
    Original indices: [1078, 1113]
  • Value: '1312020201914' (appeared 2 times, kept first)
    Original indices: [1079, 1114]
  • Value: '1312020203432' (appeared 2 times, kept first)
    Original indices: [1080, 1115]
  • Value: '1312020203456' (appeared 2 times, kept first)
    Original indices: [1081, 1116]
  • Value: '1312020201986' (appeared 2 times, kept first)
    Original indices: [1082, 1117]
  • Value: '1312020202002' (appeared 2 times, kept first)
    Original indices: [1083, 1118]
  • Value: '1312020203480' (appeared 2 times, kept first)
    Original indices: [1084, 1119]
  • Value: '1312020203424' (appeared 2 times, kept first)
    Original indices: [1085, 1120]
  • Value: '1312020203472' (appeared 2 times, kept first)
    Original indices: [1086, 1121]
  • Value: '1312020201994' (appeared 2 times, kept first)
    Original indices: [1087, 1122]
  • Value: '1312020202031' (appeared 2 times, kept first)
    Original indices: [1088, 1123]
  • Value: '1312020203696' (appeared 2 times, kept first)
    Original indices: [1089, 1124]
  • Value: '1312020201978' (appeared 2 times, kept first)
    Original indices: [1090, 1125]
  • Value: '1312020203440' (appeared 2 times, kept first)
    Original indices: [1091, 1126]
  • Value: '1312020203308' (appeared 2 times, kept first)
    Original indices: [1092, 1127]
  • Value: '1312020203706' (appeared 2 times, kept first)
    Original indices: [1135, 1143]
  • Value: '1312020202204' (appeared 2 times, kept first)
    Original indices: [270, 296]
  • Value: '1312020201898' (appeared 2 times, kept first)
    Original indices: [271, 280]
  • Value: '1312020203811' (appeared 2 times, kept first)
    Original indices: [1207, 1211]
  • Value: '1312020200830' (appeared 2 times, kept first)
    Original indices: [1340, 1382]
  • Value: '1312020202155' (appeared 2 times, kept first)
    Original indices: [1350, 1364]
  • Value: '1312020201945' (appeared 2 times, kept first)
    Original indices: [1351, 1365]
  • Value: '1312020202396' (appeared 2 times, kept first)
    Original indices: [1352, 1366]
  • Value: '1312020201961' (appeared 2 times, kept first)
    Original indices: [1353, 1367]
  • Value: '1312020201921' (appeared 2 times, kept first)
    Original indices: [1356, 1368]
  • Value: '1312020201913' (appeared 2 times, kept first)
    Original indices: [1357, 1369]
  • Value: '1312020201965' (appeared 2 times, kept first)
    Original indices: [1359, 1370]
  • Value: '1312020203076' (appeared 2 times, kept first)
    Original indices: [1146, 1147]
  • Value: '1312020203845' (appeared 2 times, kept first)
    Original indices: [1383, 1406]
  • Value: '1312020203813' (appeared 2 times, kept first)
    Original indices: [1401, 1409]
  • Value: '1312020203615' (appeared 2 times, kept first)
    Original indices: [1421, 1428]
  • Value: '1312020201489' (appeared 2 times, kept first)
    Original indices: [1423, 1478]
  • Value: '1312020203826' (appeared 2 times, kept first)
    Original indices: [1425, 1476]
  • Value: '1312020203482' (appeared 2 times, kept first)
    Original indices: [1483, 1493]
  • Value: '1312020203350' (appeared 2 times, kept first)
    Original indices: [1486, 1487]
  • Value: '1312020202220' (appeared 2 times, kept first)
    Original indices: [272, 281]
  • Value: '1312020203570' (appeared 2 times, kept first)
    Original indices: [1498, 1499]
  • Value: '1312020203669' (appeared 2 times, kept first)
    Original indices: [1500, 1501]
  • Value: '1312020201957' (appeared 2 times, kept first)
    Original indices: [1360, 1371]

================================================================================

Input file: GABOU_SANS_DOUBLON.gpkg
Output file: GABOU_SANS_DOUBLON_no_duplicates.gpkg
----------------------------------------
STATUS: SUCCESS
Original records: 1,662
Cleaned records: 1,625
Removed records: 37
Removal rate: 2.23%

Duplicate values that were found and cleaned:
  • Value: '0512030201660' (appeared 10 times, kept first)
    Original indices: [1603, 1604, 1605, 1606, 1607, 1608, 1609, 1610, 1611, 1612]
  • Value: '0512030202041' (appeared 9 times, kept first)
    Original indices: [842, 843, 844, 845, 846, 855, 856, 857, 858]
  • Value: '0512030200563' (appeared 3 times, kept first)
    Original indices: [760, 761, 762]
  • Value: '0512030200458' (appeared 3 times, kept first)
    Original indices: [746, 747, 748]
  • Value: '0512030201120' (appeared 2 times, kept first)
    Original indices: [811, 812]
  • Value: '0512030201273' (appeared 2 times, kept first)
    Original indices: [792, 795]
  • Value: '0512030201238' (appeared 2 times, kept first)
    Original indices: [780, 782]
  • Value: '0512030201281' (appeared 2 times, kept first)
    Original indices: [781, 793]
  • Value: '0512030200487' (appeared 2 times, kept first)
    Original indices: [777, 794]
  • Value: '0512030200828' (appeared 2 times, kept first)
    Original indices: [753, 1509]
  • Value: '0512030201776' (appeared 2 times, kept first)
    Original indices: [911, 927]
  • Value: '0512030201406' (appeared 2 times, kept first)
    Original indices: [1015, 1016]
  • Value: '0512030201420' (appeared 2 times, kept first)
    Original indices: [1082, 1083]
  • Value: '0512030201356' (appeared 2 times, kept first)
    Original indices: [1212, 1213]
  • Value: '0512030201739' (appeared 2 times, kept first)
    Original indices: [1249, 1252]
  • Value: '0512030201358' (appeared 2 times, kept first)
    Original indices: [1250, 1254]
  • Value: '0512030200620' (appeared 2 times, kept first)
    Original indices: [1304, 1305]
  • Value: '0512030200178' (appeared 2 times, kept first)
    Original indices: [1386, 1387]
  • Value: '0512030202115' (appeared 2 times, kept first)
    Original indices: [1510, 1511]
  • Value: '0512030201324' (appeared 2 times, kept first)
    Original indices: [1528, 1529]

================================================================================

Input file: KOAR_SANS_DOUBLON.gpkg
Output file: KOAR_SANS_DOUBLON_no_duplicates.gpkg
----------------------------------------
STATUS: SUCCESS
Original records: 101
Cleaned records: 98
Removed records: 3
Removal rate: 2.97%

Duplicate values that were found and cleaned:
  • Value: '0532010301321' (appeared 3 times, kept first)
    Original indices: [80, 81, 82]
  • Value: '0532010301467' (appeared 2 times, kept first)
    Original indices: [90, 91]

================================================================================

Input file: MISSIRAH_SANS_DOUBLON.gpkg
Output file: MISSIRAH_SANS_DOUBLON_no_duplicates.gpkg
----------------------------------------
STATUS: SUCCESS
Original records: 6,446
Cleaned records: 5,996
Removed records: 450
Removal rate: 6.98%

Duplicate values that were found and cleaned:
  • Value: 'H1 FASS' (appeared 24 times, kept first)
    Original indices: [2539, 2540, 2541, 2542, 2543, 2544, 2545, 2546, 2547, 2548, 2549, 2550, 2551, 2552, 2553, 2554, 2555, 2556, 2557, 2558, 2559, 2560, 2561, 2562]
  • Value: 'HAMDALLAYE 31 01' (appeared 17 times, kept first)
    Original indices: [2811, 2812, 2813, 2814, 2815, 2816, 2817, 2818, 2819, 2820, 2821, 2822, 2823, 2824, 2825, 2826, 2827]
  • Value: 'HAMDALLAYE 05 02' (appeared 10 times, kept first)
    Original indices: [2927, 2928, 2929, 2930, 2931, 2932, 2933, 2934, 2935, 2936]
  • Value: '0522030207847' (appeared 9 times, kept first)
    Original indices: [1165, 1709, 1803, 1840, 1886, 5311, 5447, 5460, 5873]
  • Value: '0522030200150' (appeared 9 times, kept first)
    Original indices: [167, 168, 169, 215, 216, 217, 486, 487, 488]
  • Value: '0522030210332' (appeared 9 times, kept first)
    Original indices: [5704, 5705, 5706, 5707, 5708, 5709, 5710, 5711, 5712]
  • Value: '0522030206815' (appeared 8 times, kept first)
[...]
  • Value: '1312010203455' (appeared 2 times, kept first)
    Original indices: [9371, 9720]
  • Value: '1312010203447' (appeared 2 times, kept first)
    Original indices: [9372, 9721]
  • Value: '1312010211537' (appeared 2 times, kept first)
    Original indices: [111, 180]
  • Value: '1312010203439' (appeared 2 times, kept first)
    Original indices: [9374, 9723]
  • Value: '1312010203431' (appeared 2 times, kept first)
    Original indices: [9375, 9724]
  • Value: '1312010203408' (appeared 2 times, kept first)
    Original indices: [9376, 9725]
  • Value: '1312010201984' (appeared 2 times, kept first)
    Original indices: [9377, 9726]
  • Value: '1312010201992' (appeared 2 times, kept first)
    Original indices: [9378, 9727]
  • Value: '1312010203420' (appeared 2 times, kept first)
    Original indices: [9379, 9728]
  • Value: '1312010203416' (appeared 2 times, kept first)
    Original indices: [9380, 9729]
  • Value: '1312010200052' (appeared 2 times, kept first)
    Original indices: [9381, 9730]
  • Value: '1312010200060' (appeared 2 times, kept first)
    Original indices: [9382, 9731]
  • Value: '1312010211545' (appeared 2 times, kept first)
    Original indices: [112, 181]
  • Value: '1312010201988' (appeared 2 times, kept first)
    Original indices: [9384, 9734]
  • Value: '1312010201980' (appeared 2 times, kept first)
    Original indices: [9385, 9735]
  • Value: '1312010200036' (appeared 2 times, kept first)
    Original indices: [9386, 9736]
  • Value: '1312010211529' (appeared 2 times, kept first)
    Original indices: [113, 182]
  • Value: '1312010200028' (appeared 2 times, kept first)
    Original indices: [9388, 9738]
  • Value: '1312010200812' (appeared 2 times, kept first)
    Original indices: [9389, 9739]
  • Value: '1312010200820' (appeared 2 times, kept first)
    Original indices: [9390, 9740]
  • Value: '1312010201593' (appeared 2 times, kept first)
    Original indices: [9391, 9741]
  • Value: '1312010201585' (appeared 2 times, kept first)
    Original indices: [9392, 9742]
  • Value: '1312010201577' (appeared 2 times, kept first)
    Original indices: [9393, 9743]
  • Value: '1312010201569' (appeared 2 times, kept first)
    Original indices: [9394, 9744]
  • Value: '1312010200801' (appeared 2 times, kept first)
    Original indices: [9395, 9745]
  • Value: '1312010200836' (appeared 2 times, kept first)
    Original indices: [9396, 9746]
  • Value: '1312010200844' (appeared 2 times, kept first)
    Original indices: [9397, 9747]
  • Value: '1312010200828' (appeared 2 times, kept first)
    Original indices: [9398, 9748]
  • Value: '1312010202116' (appeared 2 times, kept first)
    Original indices: [9399, 9749]
  • Value: '1312010200020' (appeared 2 times, kept first)
    Original indices: [9400, 9750]
  • Value: '1312010202208' (appeared 2 times, kept first)
    Original indices: [9401, 9751]
  • Value: '1312010202216' (appeared 2 times, kept first)
    Original indices: [9402, 9755]
  • Value: '1312010200012' (appeared 2 times, kept first)
    Original indices: [9403, 9756]
  • Value: '1312010202184' (appeared 2 times, kept first)
    Original indices: [9404, 9757]
  • Value: '1312010202224' (appeared 2 times, kept first)
    Original indices: [9405, 9758]
  • Value: '1312010202200' (appeared 2 times, kept first)
    Original indices: [9406, 9759]
  • Value: '1312010200843' (appeared 2 times, kept first)
    Original indices: [9407, 9760]
  • Value: '1312010210086' (appeared 2 times, kept first)
    Original indices: [114, 183]
  • Value: '1312010201601' (appeared 2 times, kept first)
    Original indices: [9410, 9763]
  • Value: '1312010203284' (appeared 2 times, kept first)
    Original indices: [9411, 9764]
  • Value: '1312010203324' (appeared 2 times, kept first)
    Original indices: [9412, 9765]
  • Value: '1312010203332' (appeared 2 times, kept first)
    Original indices: [9413, 9766]
  • Value: '1312010203276' (appeared 2 times, kept first)
    Original indices: [9414, 9767]
  • Value: '1312010203048' (appeared 2 times, kept first)
    Original indices: [9415, 9768]
  • Value: '1312010203292' (appeared 2 times, kept first)
    Original indices: [9416, 9769]
  • Value: '1312010203300' (appeared 2 times, kept first)
    Original indices: [9417, 9770]
  • Value: '1312010200804' (appeared 2 times, kept first)
    Original indices: [9418, 9771]
  • Value: '1312010203316' (appeared 2 times, kept first)
    Original indices: [9419, 9772]
  • Value: '1312010203308' (appeared 2 times, kept first)
    Original indices: [9420, 9773]
  • Value: '1312010204252' (appeared 2 times, kept first)
    Original indices: [9421, 9774]
  • Value: '1312010204244' (appeared 2 times, kept first)
    Original indices: [9422, 9775]
  • Value: '1312010200302' (appeared 2 times, kept first)
    Original indices: [9423, 9776]
  • Value: '1312010204236' (appeared 2 times, kept first)
    Original indices: [9424, 9777]
  • Value: '1312010200294' (appeared 2 times, kept first)
    Original indices: [9425, 9778]
  • Value: '1312010202992' (appeared 2 times, kept first)
    Original indices: [9426, 9779]
  • Value: '1312010203000' (appeared 2 times, kept first)
    Original indices: [9427, 9780]
  • Value: '1312010204220' (appeared 2 times, kept first)
    Original indices: [9428, 9781]
  • Value: '1312010204228' (appeared 2 times, kept first)
    Original indices: [9429, 9782]
  • Value: '1312010204260' (appeared 2 times, kept first)
    Original indices: [9430, 9783]
  • Value: '1312010200286' (appeared 2 times, kept first)
    Original indices: [9431, 9784]
  • Value: '1312010203040' (appeared 2 times, kept first)
    Original indices: [9432, 9785]
  • Value: '1312010203032' (appeared 2 times, kept first)
    Original indices: [9433, 9786]
  • Value: '1312010203016' (appeared 2 times, kept first)
    Original indices: [9434, 9787]
  • Value: '1312010200278' (appeared 2 times, kept first)
    Original indices: [9435, 9788]
  • Value: '1312010203008' (appeared 2 times, kept first)
    Original indices: [9436, 9789]
  • Value: '1312010203024' (appeared 2 times, kept first)
    Original indices: [9437, 9790]
  • Value: '1312010200270' (appeared 2 times, kept first)
    Original indices: [9438, 9791]
  • Value: '1312010200334' (appeared 2 times, kept first)
    Original indices: [9439, 9792]
  • Value: '1312010200326' (appeared 2 times, kept first)
    Original indices: [9440, 9793]
  • Value: '1312010200310' (appeared 2 times, kept first)
    Original indices: [9441, 9794]
  • Value: '1312010200318' (appeared 2 times, kept first)
    Original indices: [9442, 9795]
  • Value: '1312010200262' (appeared 2 times, kept first)
    Original indices: [9443, 9796]
  • Value: '1312010202168' (appeared 2 times, kept first)
    Original indices: [9444, 9797]
  • Value: '1312010202176' (appeared 2 times, kept first)
    Original indices: [9445, 9798]
  • Value: '1312010202160' (appeared 2 times, kept first)
    Original indices: [9446, 9799]
  • Value: '1312010202144' (appeared 2 times, kept first)
    Original indices: [9447, 9800]
  • Value: '1312010202152' (appeared 2 times, kept first)
    Original indices: [9448, 9801]
  • Value: '1312010202120' (appeared 2 times, kept first)
    Original indices: [9449, 9802]
  • Value: '1312010203296' (appeared 2 times, kept first)
    Original indices: [9450, 9803]
  • Value: '1312010203288' (appeared 2 times, kept first)
    Original indices: [9451, 9804]
  • Value: '1312010200378' (appeared 2 times, kept first)
    Original indices: [9452, 9805]
  • Value: '1312010200330' (appeared 2 times, kept first)
    Original indices: [9454, 9595]
  • Value: '1312010203770' (appeared 2 times, kept first)
    Original indices: [9455, 9596]
  • Value: '1312010203827' (appeared 2 times, kept first)
    Original indices: [9456, 9597]
  • Value: '1312010203746' (appeared 2 times, kept first)
    Original indices: [9457, 9599]
  • Value: '1312010203320' (appeared 2 times, kept first)
    Original indices: [9458, 9601]
  • Value: '1312010203312' (appeared 2 times, kept first)
    Original indices: [9459, 9602]
  • Value: '1312010203762' (appeared 2 times, kept first)
    Original indices: [9460, 9603]
  • Value: '1312010203313' (appeared 2 times, kept first)
    Original indices: [9461, 9806]
  • Value: '1312010203305' (appeared 2 times, kept first)
    Original indices: [9462, 9807]
  • Value: '1312010203289' (appeared 2 times, kept first)
    Original indices: [9463, 9808]
  • Value: '1312010202089' (appeared 2 times, kept first)
    Original indices: [9464, 9809]
  • Value: '1312010202049' (appeared 2 times, kept first)
    Original indices: [9465, 9810]
  • Value: '1312010212939' (appeared 2 times, kept first)
    Original indices: [116, 184]
  • Value: '1312010203321' (appeared 2 times, kept first)
    Original indices: [9467, 9812]
  • Value: '1312010202077' (appeared 2 times, kept first)
    Original indices: [9468, 9813]
  • Value: '1312010200142' (appeared 2 times, kept first)
    Original indices: [9469, 9814]
  • Value: '1312010200133' (appeared 2 times, kept first)
    Original indices: [9470, 9815]
  • Value: '1312010200049' (appeared 2 times, kept first)
    Original indices: [9471, 9816]
  • Value: '1312010203835' (appeared 2 times, kept first)
    Original indices: [9472, 9817]
  • Value: '1312010203839' (appeared 2 times, kept first)
    Original indices: [9474, 9819]
  • Value: '1312010200025' (appeared 2 times, kept first)
    Original indices: [9475, 9820]
  • Value: '1312010200017' (appeared 2 times, kept first)
    Original indices: [9476, 9821]
  • Value: '1312010200033' (appeared 2 times, kept first)
    Original indices: [9477, 9822]
  • Value: '1312010202033' (appeared 2 times, kept first)
    Original indices: [9478, 9823]
  • Value: '1312010201329' (appeared 2 times, kept first)
    Original indices: [9479, 9824]
  • Value: '1312010203754' (appeared 2 times, kept first)
    Original indices: [9480, 9825]
  • Value: '1312010200009' (appeared 2 times, kept first)
    Original indices: [9481, 9826]
  • Value: '1312010200041' (appeared 2 times, kept first)
    Original indices: [9482, 9827]
  • Value: '1312010212947' (appeared 2 times, kept first)
    Original indices: [117, 185]
  • Value: '1312010200001' (appeared 2 times, kept first)
    Original indices: [9484, 9829]
  • Value: '1312010201389' (appeared 2 times, kept first)
    Original indices: [9485, 9830]
  • Value: '1312010211467' (appeared 2 times, kept first)
    Original indices: [118, 186]
  • Value: '1312010201381' (appeared 2 times, kept first)
    Original indices: [9487, 9832]
  • Value: '1312010201397' (appeared 2 times, kept first)
    Original indices: [9488, 9833]
  • Value: '1312010201373' (appeared 2 times, kept first)
    Original indices: [9489, 9834]
  • Value: '1312010211459' (appeared 2 times, kept first)
    Original indices: [119, 187]
  • Value: '1312010211475' (appeared 2 times, kept first)
    Original indices: [120, 188]
  • Value: '1312010201365' (appeared 2 times, kept first)
    Original indices: [9492, 9837]
  • Value: '1312010201341' (appeared 2 times, kept first)
    Original indices: [9493, 9838]
  • Value: '1312010201357' (appeared 2 times, kept first)
    Original indices: [9494, 9839]
  • Value: '1312010201349' (appeared 2 times, kept first)
    Original indices: [9495, 9840]
  • Value: '1312010201333' (appeared 2 times, kept first)
    Original indices: [9496, 9841]
  • Value: '1312010203297' (appeared 2 times, kept first)
    Original indices: [9498, 9843]
  • Value: '1312010200293' (appeared 2 times, kept first)
    Original indices: [9499, 9844]
  • Value: '1312010200341' (appeared 2 times, kept first)
    Original indices: [9501, 9846]
  • Value: '1312010200333' (appeared 2 times, kept first)
    Original indices: [9502, 9847]
  • Value: '1312010200325' (appeared 2 times, kept first)
    Original indices: [9503, 9848]
  • Value: '1312010200121' (appeared 2 times, kept first)
    Original indices: [9504, 9849]
  • Value: '1312010200309' (appeared 2 times, kept first)
    Original indices: [9505, 9850]
  • Value: '1312010200261' (appeared 2 times, kept first)
    Original indices: [9506, 9851]
  • Value: '1312010200285' (appeared 2 times, kept first)
    Original indices: [9507, 9852]
  • Value: '1312010202025' (appeared 2 times, kept first)
    Original indices: [9508, 9853]
  • Value: '1312010202057' (appeared 2 times, kept first)
    Original indices: [9509, 9854]
  • Value: '1312010200593' (appeared 2 times, kept first)
    Original indices: [9510, 9855]
  • Value: '1312010200277' (appeared 2 times, kept first)
    Original indices: [9511, 9856]
  • Value: '1312010200601' (appeared 2 times, kept first)
    Original indices: [9512, 9857]
  • Value: '1312010203281' (appeared 2 times, kept first)
    Original indices: [9513, 9858]
  • Value: '1312010200301' (appeared 2 times, kept first)
    Original indices: [9514, 9859]
  • Value: '1312010202073' (appeared 2 times, kept first)
    Original indices: [9515, 9860]
  • Value: '1312010202173' (appeared 2 times, kept first)
    Original indices: [9516, 9861]
  • Value: '1312010200269' (appeared 2 times, kept first)
    Original indices: [9517, 9862]
  • Value: '1312010203273' (appeared 2 times, kept first)
    Original indices: [9518, 9863]
  • Value: '1312010202157' (appeared 2 times, kept first)
    Original indices: [9519, 9864]
  • Value: '1312010202165' (appeared 2 times, kept first)
    Original indices: [9520, 9865]
  • Value: '1312010211047' (appeared 2 times, kept first)
    Original indices: [9521, 9867]
  • Value: '1312010211055' (appeared 2 times, kept first)
    Original indices: [9522, 9868]
  • Value: '1312010211116' (appeared 2 times, kept first)
    Original indices: [9523, 9869]
  • Value: '1312010211071' (appeared 2 times, kept first)
    Original indices: [9524, 9870]
  • Value: '1312010211181' (appeared 2 times, kept first)
    Original indices: [9525, 9871]
  • Value: '1312010211212' (appeared 2 times, kept first)
    Original indices: [9526, 9872]
  • Value: '1312010211189' (appeared 2 times, kept first)
    Original indices: [9527, 9873]
  • Value: '1312010211244' (appeared 2 times, kept first)
    Original indices: [9528, 9874]
  • Value: '1312010211197' (appeared 2 times, kept first)
    Original indices: [9529, 9875]
  • Value: '1312010211252' (appeared 2 times, kept first)
    Original indices: [9530, 9876]
  • Value: '1312010211124' (appeared 2 times, kept first)
    Original indices: [9531, 9877]
  • Value: '1312010211092' (appeared 2 times, kept first)
    Original indices: [9532, 9878]
  • Value: '1312010211026' (appeared 2 times, kept first)
    Original indices: [9533, 9879]
  • Value: '1312010211236' (appeared 2 times, kept first)
    Original indices: [9534, 9880]
  • Value: '1312010211100' (appeared 2 times, kept first)
    Original indices: [9535, 9881]
  • Value: '1312010211108' (appeared 2 times, kept first)
    Original indices: [9536, 9882]
  • Value: '1312010211054' (appeared 2 times, kept first)
    Original indices: [9537, 9883]
  • Value: '1312010211228' (appeared 2 times, kept first)
    Original indices: [9538, 9884]
  • Value: '1312010211220' (appeared 2 times, kept first)
    Original indices: [9539, 9885]
  • Value: '1312010211062' (appeared 2 times, kept first)
    Original indices: [9540, 9886]
  • Value: '1312010211260' (appeared 2 times, kept first)
    Original indices: [9542, 9888]
  • Value: '1312010208273' (appeared 2 times, kept first)
    Original indices: [9543, 9889]
  • Value: '1312010208338' (appeared 2 times, kept first)
    Original indices: [9544, 9891]
  • Value: '1312010208314' (appeared 2 times, kept first)
    Original indices: [9546, 9894]
  • Value: '1312010208351' (appeared 2 times, kept first)
    Original indices: [9547, 9895]
  • Value: '1312010208343' (appeared 2 times, kept first)
    Original indices: [9548, 9896]
  • Value: '1312010210836' (appeared 2 times, kept first)
    Original indices: [9549, 9902]
  • Value: '1312010202869' (appeared 2 times, kept first)
    Original indices: [9582, 9588]
  • Value: '1312010204107' (appeared 2 times, kept first)
    Original indices: [9585, 9652]
  • Value: '1312010201880' (appeared 2 times, kept first)
    Original indices: [9903, 9987]
  • Value: '1312010210041' (appeared 2 times, kept first)
    Original indices: [121, 189]
  • Value: '1312010203402' (appeared 2 times, kept first)
    Original indices: [9906, 10205]
  • Value: '1312010201872' (appeared 2 times, kept first)
    Original indices: [9942, 10153]
  • Value: '1312010202832' (appeared 2 times, kept first)
    Original indices: [9979, 9980]
  • Value: '1312010201169' (appeared 2 times, kept first)
    Original indices: [10002, 10186]
  • Value: '1312010201177' (appeared 2 times, kept first)
    Original indices: [10003, 10187]
  • Value: '1312010200744' (appeared 2 times, kept first)
    Original indices: [10005, 10127]
  • Value: '1312010211477' (appeared 2 times, kept first)
    Original indices: [123, 191]
  • Value: '1312010211469' (appeared 2 times, kept first)
    Original indices: [124, 192]
  • Value: '1312010211483' (appeared 2 times, kept first)
    Original indices: [126, 194]
  • Value: '1312010201407' (appeared 2 times, kept first)
    Original indices: [10092, 10188]
  • Value: '1312010201899' (appeared 2 times, kept first)
    Original indices: [10105, 10161]
  • Value: '1312010201874' (appeared 2 times, kept first)
    Original indices: [10124, 10125]
  • Value: '1312010211106' (appeared 2 times, kept first)
    Original indices: [10158, 10159]
  • Value: '1312010204110' (appeared 2 times, kept first)
    Original indices: [10356, 10395]
  • Value: '1312010204026' (appeared 2 times, kept first)
    Original indices: [10357, 10405]
  • Value: '1312010204109' (appeared 2 times, kept first)
    Original indices: [10365, 10562]
  • Value: '1312010204042' (appeared 2 times, kept first)
    Original indices: [10368, 10462]
  • Value: '1312010204106' (appeared 2 times, kept first)
    Original indices: [10374, 10510]
  • Value: '1312010204096' (appeared 2 times, kept first)
    Original indices: [10379, 10502]
  • Value: '1312010204105' (appeared 2 times, kept first)
    Original indices: [10380, 10493]
  • Value: '1312010201073' (appeared 2 times, kept first)
    Original indices: [10381, 10463]
  • Value: '1312010201058' (appeared 2 times, kept first)
    Original indices: [10386, 10408]
  • Value: '1312010201050' (appeared 2 times, kept first)
    Original indices: [10398, 10511]
  • Value: '1312010201068' (appeared 2 times, kept first)
    Original indices: [10400, 10452]
  • Value: '1312010201067' (appeared 2 times, kept first)
    Original indices: [10404, 10494]
  • Value: '1312010201021' (appeared 2 times, kept first)
    Original indices: [10416, 10509]
  • Value: '1312010201029' (appeared 2 times, kept first)
    Original indices: [10417, 10507]
  • Value: '1312010202433' (appeared 2 times, kept first)
    Original indices: [10418, 10572]
  • Value: '1312010200555' (appeared 2 times, kept first)
    Original indices: [10419, 10565]
  • Value: '1312010200578' (appeared 2 times, kept first)
    Original indices: [10555, 10609]
  • Value: '1312010202979' (appeared 2 times, kept first)
    Original indices: [10566, 10606]
  • Value: '1312010202294' (appeared 2 times, kept first)
    Original indices: [10573, 10575]
  • Value: '1312010202636' (appeared 2 times, kept first)
    Original indices: [10574, 10576]
  • Value: '1312010205166' (appeared 2 times, kept first)
    Original indices: [4, 4636]
  • Value: '1312010205795' (appeared 2 times, kept first)
    Original indices: [5, 4637]
  • Value: '1312010202335' (appeared 2 times, kept first)
    Original indices: [7, 4600]
  • Value: '1312010203978' (appeared 2 times, kept first)
    Original indices: [15, 36]
  • Value: '1312010205587' (appeared 2 times, kept first)
    Original indices: [1, 4585]

================================================================================

